data_image0
_cell_length_a       22.989
_cell_length_b       22.989
_cell_length_c       15.763
_cell_angle_alpha    90
_cell_angle_beta     90
_cell_angle_gamma    120

_symmetry_space_group_name_H-M    "P 1"
_symmetry_int_tables_number       1

loop_
  _symmetry_equiv_pos_as_xyz
  'x, y, z'

loop_
  _atom_site_label
  _atom_site_occupancy
  _atom_site_fract_x
  _atom_site_fract_y
  _atom_site_fract_z
  _atom_site_thermal_displace_type
  _atom_site_B_iso_or_equiv
  _atom_site_type_symbol
  C1       1.0000 0.69950  0.02850  0.17630  Biso   1.000  C
  H1       1.0000 0.73820  0.07030  0.17200  Biso   1.000  H
  C2       1.0000 0.60880  0.94520  0.22640  Biso   1.000  C
  C3       1.0000 0.55290  0.90140  0.27220  Biso   1.000  C
  H2       1.0000 0.54360  0.91310  0.32480  Biso   1.000  H
  C4       1.0000 0.51170  0.83960  0.23700  Biso   1.000  C
  H3       1.0000 0.47380  0.80870  0.26670  Biso   1.000  H
  C5       1.0000 0.52510  0.82150  0.15630  Biso   1.000  C
  H4       1.0000 0.49600  0.77900  0.13450  Biso   1.000  H
  C6       1.0000 0.62220  0.92740  0.14630  Biso   1.000  C
  C7       1.0000 0.58000  0.86540  0.11010  Biso   1.000  C
  H5       1.0000 0.58860  0.85410  0.05670  Biso   1.000  H
  C8       1.0000 0.80820  0.20120  0.33980  Biso   1.000  C
  H6       1.0000 0.82440  0.18970  0.38710  Biso   1.000  H
  C9       1.0000 0.80340  0.25700  0.23610  Biso   1.000  C
  C10      1.0000 0.81400  0.30390  0.17010  Biso   1.000  C
  H7       1.0000 0.85440  0.34400  0.16580  Biso   1.000  H
  C11      1.0000 0.74430  0.19720  0.24000  Biso   1.000  C
  C12      1.0000 0.69050  0.17970  0.18020  Biso   1.000  C
  H8       1.0000 0.65050  0.13890  0.18320  Biso   1.000  H
  C13      1.0000 0.76370  0.28860  0.11380  Biso   1.000  C
  H9       1.0000 0.77020  0.31940  0.07140  Biso   1.000  H
  C14      1.0000 0.70170  0.22710  0.11750  Biso   1.000  C
  H10      1.0000 0.66830  0.21840  0.07800  Biso   1.000  H
  N1       1.0000 0.65890  0.01130  0.24330  Biso   1.000  N
  N2       1.0000 0.74800  0.16040  0.30920  Biso   1.000  N
  N3       1.0000 0.68120  0.98190  0.11520  Biso   1.000  N
  N4       1.0000 0.84450  0.25900  0.30060  Biso   1.000  N
  Zn1      1.0000 0.67190  0.07047  0.34160  Biso   1.000  Zn
  C15      1.0000 0.36617  0.36183  0.50963  Biso   1.000  C
  H11      1.0000 0.40487  0.40363  0.50533  Biso   1.000  H
  C16      1.0000 0.27547  0.27853  0.55973  Biso   1.000  C
  C17      1.0000 0.21957  0.23473  0.60553  Biso   1.000  C
  H12      1.0000 0.21027  0.24643  0.65813  Biso   1.000  H
  C18      1.0000 0.17837  0.17293  0.57033  Biso   1.000  C
  H13      1.0000 0.14047  0.14203  0.60003  Biso   1.000  H
  C19      1.0000 0.19177  0.15483  0.48963  Biso   1.000  C
  H14      1.0000 0.16267  0.11233  0.46783  Biso   1.000  H
  C20      1.0000 0.28887  0.26073  0.47963  Biso   1.000  C
  C21      1.0000 0.24667  0.19873  0.44343  Biso   1.000  C
  H15      1.0000 0.25527  0.18743  0.39003  Biso   1.000  H
  C22      1.0000 0.47487  0.53453  0.67313  Biso   1.000  C
  H16      1.0000 0.49107  0.52303  0.72043  Biso   1.000  H
  C23      1.0000 0.47007  0.59033  0.56943  Biso   1.000  C
  C24      1.0000 0.48067  0.63723  0.50343  Biso   1.000  C
  H17      1.0000 0.52107  0.67733  0.49913  Biso   1.000  H
  C25      1.0000 0.41097  0.53053  0.57333  Biso   1.000  C
  C26      1.0000 0.35717  0.51303  0.51353  Biso   1.000  C
  H18      1.0000 0.31717  0.47223  0.51653  Biso   1.000  H
  C27      1.0000 0.43037  0.62193  0.44713  Biso   1.000  C
  H19      1.0000 0.43687  0.65273  0.40473  Biso   1.000  H
  C28      1.0000 0.36837  0.56043  0.45083  Biso   1.000  C
  H20      1.0000 0.33497  0.55173  0.41133  Biso   1.000  H
  N5       1.0000 0.32557  0.34463  0.57663  Biso   1.000  N
  N6       1.0000 0.41467  0.49373  0.64253  Biso   1.000  N
  N7       1.0000 0.34787  0.31523  0.44853  Biso   1.000  N
  N8       1.0000 0.51117  0.59233  0.63393  Biso   1.000  N
  Zn2      1.0000 0.33857  0.40380  0.67493  Biso   1.000  Zn
  C29      1.0000 0.03283  0.69517  0.84297  Biso   1.000  C
  H21      1.0000 0.07153  0.73697  0.83867  Biso   1.000  H
  C30      1.0000 0.94213  0.61187  0.89307  Biso   1.000  C
  C31      1.0000 0.88623  0.56807  0.93887  Biso   1.000  C
  H22      1.0000 0.87693  0.57977  0.99147  Biso   1.000  H
  C32      1.0000 0.84503  0.50627  0.90367  Biso   1.000  C
  H23      1.0000 0.80713  0.47537  0.93337  Biso   1.000  H
  C33      1.0000 0.85843  0.48817  0.82297  Biso   1.000  C
  H24      1.0000 0.82933  0.44567  0.80117  Biso   1.000  H
  C34      1.0000 0.95553  0.59407  0.81297  Biso   1.000  C
  C35      1.0000 0.91333  0.53207  0.77677  Biso   1.000  C
  H25      1.0000 0.92193  0.52077  0.72337  Biso   1.000  H
  C36      1.0000 0.14153  0.86787  0.00647  Biso   1.000  C
  H26      1.0000 0.15773  0.85637  0.05377  Biso   1.000  H
  C37      1.0000 0.13673  0.92367  0.90277  Biso   1.000  C
  C38      1.0000 0.14733  0.97057  0.83677  Biso   1.000  C
  H27      1.0000 0.18773  0.01067  0.83247  Biso   1.000  H
  C39      1.0000 0.07763  0.86387  0.90667  Biso   1.000  C
  C40      1.0000 0.02383  0.84637  0.84687  Biso   1.000  C
  H28      1.0000 0.98383  0.80557  0.84987  Biso   1.000  H
  C41      1.0000 0.09703  0.95527  0.78047  Biso   1.000  C
  H29      1.0000 0.10353  0.98607  0.73807  Biso   1.000  H
  C42      1.0000 0.03503  0.89377  0.78417  Biso   1.000  C
  H30      1.0000 0.00163  0.88507  0.74467  Biso   1.000  H
  N9       1.0000 0.99223  0.67797  0.90997  Biso   1.000  N
  N10      1.0000 0.08133  0.82707  0.97587  Biso   1.000  N
  N11      1.0000 0.01453  0.64857  0.78187  Biso   1.000  N
  N12      1.0000 0.17783  0.92567  0.96727  Biso   1.000  N
  Zn3      1.0000 0.00523  0.73714  0.00827  Biso   1.000  Zn
  C43      1.0000 0.97150  0.67100  0.17630  Biso   1.000  C
  H31      1.0000 0.92970  0.66790  0.17200  Biso   1.000  H
  C44      1.0000 0.05480  0.66360  0.22640  Biso   1.000  C
  C45      1.0000 0.09860  0.65150  0.27220  Biso   1.000  C
  H32      1.0000 0.08690  0.63050  0.32480  Biso   1.000  H
  C46      1.0000 0.16040  0.67210  0.23700  Biso   1.000  C
  H33      1.0000 0.19130  0.66510  0.26670  Biso   1.000  H
  C47      1.0000 0.17850  0.70360  0.15630  Biso   1.000  C
  H34      1.0000 0.22100  0.71700  0.13450  Biso   1.000  H
  C48      1.0000 0.07260  0.69480  0.14630  Biso   1.000  C
  C49      1.0000 0.13460  0.71460  0.11010  Biso   1.000  C
  H35      1.0000 0.14590  0.73450  0.05670  Biso   1.000  H
  C50      1.0000 0.79880  0.60700  0.33980  Biso   1.000  C
  H36      1.0000 0.81030  0.63470  0.38710  Biso   1.000  H
  C51      1.0000 0.74300  0.54640  0.23610  Biso   1.000  C
  C52      1.0000 0.69610  0.51010  0.17010  Biso   1.000  C
  H37      1.0000 0.65600  0.51040  0.16580  Biso   1.000  H
  C53      1.0000 0.80280  0.54710  0.24000  Biso   1.000  C
  C54      1.0000 0.82030  0.51080  0.18020  Biso   1.000  C
  H38      1.0000 0.86110  0.51160  0.18320  Biso   1.000  H
  C55      1.0000 0.71140  0.47510  0.11380  Biso   1.000  C
  H39      1.0000 0.68060  0.45080  0.07140  Biso   1.000  H
  C56      1.0000 0.77290  0.47460  0.11750  Biso   1.000  C
  H40      1.0000 0.78160  0.44990  0.07800  Biso   1.000  H
  N13      1.0000 0.98870  0.64760  0.24330  Biso   1.000  N
  N14      1.0000 0.83960  0.58760  0.30920  Biso   1.000  N
  N15      1.0000 0.01810  0.69930  0.11520  Biso   1.000  N
  N16      1.0000 0.74100  0.58550  0.30060  Biso   1.000  N
  Zn4      1.0000 0.92953  0.60143  0.34160  Biso   1.000  Zn
  C57      1.0000 0.63817  0.00433  0.50963  Biso   1.000  C
  H41      1.0000 0.59637  0.00123  0.50533  Biso   1.000  H
  C58      1.0000 0.72147  0.99693  0.55973  Biso   1.000  C
  C59      1.0000 0.76527  0.98483  0.60553  Biso   1.000  C
  H42      1.0000 0.75357  0.96383  0.65813  Biso   1.000  H
  C60      1.0000 0.82707  0.00543  0.57033  Biso   1.000  C
  H43      1.0000 0.85797  0.99843  0.60003  Biso   1.000  H
  C61      1.0000 0.84517  0.03693  0.48963  Biso   1.000  C
  H44      1.0000 0.88767  0.05033  0.46783  Biso   1.000  H
  C62      1.0000 0.73927  0.02813  0.47963  Biso   1.000  C
  C63      1.0000 0.80127  0.04793  0.44343  Biso   1.000  C
  H45      1.0000 0.81257  0.06783  0.39003  Biso   1.000  H
  C64      1.0000 0.46547  0.94033  0.67313  Biso   1.000  C
  H46      1.0000 0.47697  0.96803  0.72043  Biso   1.000  H
  C65      1.0000 0.40967  0.87973  0.56943  Biso   1.000  C
  C66      1.0000 0.36277  0.84343  0.50343  Biso   1.000  C
  H47      1.0000 0.32267  0.84373  0.49913  Biso   1.000  H
  C67      1.0000 0.46947  0.88043  0.57333  Biso   1.000  C
  C68      1.0000 0.48697  0.84413  0.51353  Biso   1.000  C
  H48      1.0000 0.52777  0.84493  0.51653  Biso   1.000  H
  C69      1.0000 0.37807  0.80843  0.44713  Biso   1.000  C
  H49      1.0000 0.34727  0.78413  0.40473  Biso   1.000  H
  C70      1.0000 0.43957  0.80793  0.45083  Biso   1.000  C
  H50      1.0000 0.44827  0.78323  0.41133  Biso   1.000  H
  N17      1.0000 0.65537  0.98093  0.57663  Biso   1.000  N
  N18      1.0000 0.50627  0.92093  0.64253  Biso   1.000  N
  N19      1.0000 0.68477  0.03263  0.44853  Biso   1.000  N
  N20      1.0000 0.40767  0.91883  0.63393  Biso   1.000  N
  Zn5      1.0000 0.59620  0.93476  0.67493  Biso   1.000  Zn
  C71      1.0000 0.30483  0.33767  0.84297  Biso   1.000  C
  H51      1.0000 0.26303  0.33457  0.83867  Biso   1.000  H
  C72      1.0000 0.38813  0.33027  0.89307  Biso   1.000  C
  C73      1.0000 0.43193  0.31817  0.93887  Biso   1.000  C
  H52      1.0000 0.42023  0.29717  0.99147  Biso   1.000  H
  C74      1.0000 0.49373  0.33877  0.90367  Biso   1.000  C
  H53      1.0000 0.52463  0.33177  0.93337  Biso   1.000  H
  C75      1.0000 0.51183  0.37027  0.82297  Biso   1.000  C
  H54      1.0000 0.55433  0.38367  0.80117  Biso   1.000  H
  C76      1.0000 0.40593  0.36147  0.81297  Biso   1.000  C
  C77      1.0000 0.46793  0.38127  0.77677  Biso   1.000  C
  H55      1.0000 0.47923  0.40117  0.72337  Biso   1.000  H
  C78      1.0000 0.13213  0.27367  0.00647  Biso   1.000  C
  H56      1.0000 0.14363  0.30137  0.05377  Biso   1.000  H
  C79      1.0000 0.07633  0.21307  0.90277  Biso   1.000  C
  C80      1.0000 0.02943  0.17677  0.83677  Biso   1.000  C
  H57      1.0000 0.98933  0.17707  0.83247  Biso   1.000  H
  C81      1.0000 0.13613  0.21377  0.90667  Biso   1.000  C
  C82      1.0000 0.15363  0.17747  0.84687  Biso   1.000  C
  H58      1.0000 0.19443  0.17827  0.84987  Biso   1.000  H
  C83      1.0000 0.04473  0.14177  0.78047  Biso   1.000  C
  H59      1.0000 0.01393  0.11747  0.73807  Biso   1.000  H
  C84      1.0000 0.10623  0.14127  0.78417  Biso   1.000  C
  H60      1.0000 0.11493  0.11657  0.74467  Biso   1.000  H
  N21      1.0000 0.32203  0.31427  0.90997  Biso   1.000  N
  N22      1.0000 0.17293  0.25427  0.97587  Biso   1.000  N
  N23      1.0000 0.35143  0.36597  0.78187  Biso   1.000  N
  N24      1.0000 0.07433  0.25217  0.96727  Biso   1.000  N
  Zn6      1.0000 0.26286  0.26810  0.00827  Biso   1.000  Zn
  C85      1.0000 0.32900  0.30050  0.17630  Biso   1.000  C
  H61      1.0000 0.33210  0.26180  0.17200  Biso   1.000  H
  C86      1.0000 0.33640  0.39120  0.22640  Biso   1.000  C
  C87      1.0000 0.34850  0.44710  0.27220  Biso   1.000  C
  H62      1.0000 0.36950  0.45640  0.32480  Biso   1.000  H
  C88      1.0000 0.32790  0.48830  0.23700  Biso   1.000  C
  H63      1.0000 0.33490  0.52620  0.26670  Biso   1.000  H
  C89      1.0000 0.29640  0.47490  0.15630  Biso   1.000  C
  H64      1.0000 0.28300  0.50400  0.13450  Biso   1.000  H
  C90      1.0000 0.30520  0.37780  0.14630  Biso   1.000  C
  C91      1.0000 0.28540  0.42000  0.11010  Biso   1.000  C
  H65      1.0000 0.26550  0.41140  0.05670  Biso   1.000  H
  C92      1.0000 0.39300  0.19180  0.33980  Biso   1.000  C
  H66      1.0000 0.36530  0.17560  0.38710  Biso   1.000  H
  C93      1.0000 0.45360  0.19660  0.23610  Biso   1.000  C
  C94      1.0000 0.48990  0.18600  0.17010  Biso   1.000  C
  H67      1.0000 0.48960  0.14560  0.16580  Biso   1.000  H
  C95      1.0000 0.45290  0.25570  0.24000  Biso   1.000  C
  C96      1.0000 0.48920  0.30950  0.18020  Biso   1.000  C
  H68      1.0000 0.48840  0.34950  0.18320  Biso   1.000  H
  C97      1.0000 0.52490  0.23630  0.11380  Biso   1.000  C
  H69      1.0000 0.54920  0.22980  0.07140  Biso   1.000  H
  C98      1.0000 0.52540  0.29830  0.11750  Biso   1.000  C
  H70      1.0000 0.55010  0.33170  0.07800  Biso   1.000  H
  N25      1.0000 0.35240  0.34110  0.24330  Biso   1.000  N
  N26      1.0000 0.41240  0.25200  0.30920  Biso   1.000  N
  N27      1.0000 0.30070  0.31880  0.11520  Biso   1.000  N
  N28      1.0000 0.41450  0.15550  0.30060  Biso   1.000  N
  Zn7      1.0000 0.39857  0.32810  0.34160  Biso   1.000  Zn
  C99      1.0000 0.99567  0.63383  0.50963  Biso   1.000  C
  H71      1.0000 0.99877  0.59513  0.50533  Biso   1.000  H
  C100     1.0000 0.00307  0.72453  0.55973  Biso   1.000  C
  C101     1.0000 0.01517  0.78043  0.60553  Biso   1.000  C
  H72      1.0000 0.03617  0.78973  0.65813  Biso   1.000  H
  C102     1.0000 0.99457  0.82163  0.57033  Biso   1.000  C
  H73      1.0000 0.00157  0.85953  0.60003  Biso   1.000  H
  C103     1.0000 0.96307  0.80823  0.48963  Biso   1.000  C
  H74      1.0000 0.94967  0.83733  0.46783  Biso   1.000  H
  C104     1.0000 0.97187  0.71113  0.47963  Biso   1.000  C
  C105     1.0000 0.95207  0.75333  0.44343  Biso   1.000  C
  H75      1.0000 0.93217  0.74473  0.39003  Biso   1.000  H
  C106     1.0000 0.05967  0.52513  0.67313  Biso   1.000  C
  H76      1.0000 0.03197  0.50893  0.72043  Biso   1.000  H
  C107     1.0000 0.12027  0.52993  0.56943  Biso   1.000  C
  C108     1.0000 0.15657  0.51933  0.50343  Biso   1.000  C
  H77      1.0000 0.15627  0.47893  0.49913  Biso   1.000  H
  C109     1.0000 0.11957  0.58903  0.57333  Biso   1.000  C
  C110     1.0000 0.15587  0.64283  0.51353  Biso   1.000  C
  H78      1.0000 0.15507  0.68283  0.51653  Biso   1.000  H
  C111     1.0000 0.19157  0.56963  0.44713  Biso   1.000  C
  H79      1.0000 0.21587  0.56313  0.40473  Biso   1.000  H
  C112     1.0000 0.19207  0.63163  0.45083  Biso   1.000  C
  H80      1.0000 0.21677  0.66503  0.41133  Biso   1.000  H
  N29      1.0000 0.01907  0.67443  0.57663  Biso   1.000  N
  N30      1.0000 0.07907  0.58533  0.64253  Biso   1.000  N
  N31      1.0000 0.96737  0.65213  0.44853  Biso   1.000  N
  N32      1.0000 0.08117  0.48883  0.63393  Biso   1.000  N
  Zn8      1.0000 0.06524  0.66143  0.67493  Biso   1.000  Zn
  C113     1.0000 0.66233  0.96717  0.84297  Biso   1.000  C
  H81      1.0000 0.66543  0.92847  0.83867  Biso   1.000  H
  C114     1.0000 0.66973  0.05787  0.89307  Biso   1.000  C
  C115     1.0000 0.68183  0.11377  0.93887  Biso   1.000  C
  H82      1.0000 0.70283  0.12307  0.99147  Biso   1.000  H
  C116     1.0000 0.66123  0.15497  0.90367  Biso   1.000  C
  H83      1.0000 0.66823  0.19287  0.93337  Biso   1.000  H
  C117     1.0000 0.62973  0.14157  0.82297  Biso   1.000  C
  H84      1.0000 0.61633  0.17067  0.80117  Biso   1.000  H
  C118     1.0000 0.63853  0.04447  0.81297  Biso   1.000  C
  C119     1.0000 0.61873  0.08667  0.77677  Biso   1.000  C
  H85      1.0000 0.59883  0.07807  0.72337  Biso   1.000  H
  C120     1.0000 0.72633  0.85847  0.00647  Biso   1.000  C
  H86      1.0000 0.69863  0.84227  0.05377  Biso   1.000  H
  C121     1.0000 0.78693  0.86327  0.90277  Biso   1.000  C
  C122     1.0000 0.82323  0.85267  0.83677  Biso   1.000  C
  H87      1.0000 0.82293  0.81227  0.83247  Biso   1.000  H
  C123     1.0000 0.78623  0.92237  0.90667  Biso   1.000  C
  C124     1.0000 0.82253  0.97617  0.84687  Biso   1.000  C
  H88      1.0000 0.82173  0.01617  0.84987  Biso   1.000  H
  C125     1.0000 0.85823  0.90297  0.78047  Biso   1.000  C
  H89      1.0000 0.88253  0.89647  0.73807  Biso   1.000  H
  C126     1.0000 0.85873  0.96497  0.78417  Biso   1.000  C
  H90      1.0000 0.88343  0.99837  0.74467  Biso   1.000  H
  N33      1.0000 0.68573  0.00777  0.90997  Biso   1.000  N
  N34      1.0000 0.74573  0.91867  0.97587  Biso   1.000  N
  N35      1.0000 0.63403  0.98547  0.78187  Biso   1.000  N
  N36      1.0000 0.74783  0.82217  0.96727  Biso   1.000  N
  Zn9      1.0000 0.73190  0.99477  0.00827  Biso   1.000  Zn
  C127     1.0000 0.30050  0.97150  0.82370  Biso   1.000  C
  H91      1.0000 0.26180  0.92970  0.82800  Biso   1.000  H
  C128     1.0000 0.39120  0.05480  0.77360  Biso   1.000  C
  C129     1.0000 0.44710  0.09860  0.72780  Biso   1.000  C
  H92      1.0000 0.45640  0.08690  0.67520  Biso   1.000  H
  C130     1.0000 0.48830  0.16040  0.76300  Biso   1.000  C
  H93      1.0000 0.52620  0.19130  0.73330  Biso   1.000  H
  C131     1.0000 0.47490  0.17850  0.84370  Biso   1.000  C
  H94      1.0000 0.50400  0.22100  0.86550  Biso   1.000  H
  C132     1.0000 0.37780  0.07260  0.85370  Biso   1.000  C
  C133     1.0000 0.42000  0.13460  0.88990  Biso   1.000  C
  H95      1.0000 0.41140  0.14590  0.94330  Biso   1.000  H
  C134     1.0000 0.19180  0.79880  0.66020  Biso   1.000  C
  H96      1.0000 0.17560  0.81030  0.61290  Biso   1.000  H
  C135     1.0000 0.19660  0.74300  0.76390  Biso   1.000  C
  C136     1.0000 0.18600  0.69610  0.82990  Biso   1.000  C
  H97      1.0000 0.14560  0.65600  0.83420  Biso   1.000  H
  C137     1.0000 0.25570  0.80280  0.76000  Biso   1.000  C
  C138     1.0000 0.30950  0.82030  0.81980  Biso   1.000  C
  H98      1.0000 0.34950  0.86110  0.81680  Biso   1.000  H
  C139     1.0000 0.23630  0.71140  0.88620  Biso   1.000  C
  H99      1.0000 0.22980  0.68060  0.92860  Biso   1.000  H
  C140     1.0000 0.29830  0.77290  0.88250  Biso   1.000  C
  H100     1.0000 0.33170  0.78160  0.92200  Biso   1.000  H
  N37      1.0000 0.34110  0.98870  0.75670  Biso   1.000  N
  N38      1.0000 0.25200  0.83960  0.69080  Biso   1.000  N
  N39      1.0000 0.31880  0.01810  0.88480  Biso   1.000  N
  N40      1.0000 0.15550  0.74100  0.69940  Biso   1.000  N
  Zn10     1.0000 0.32810  0.92953  0.65840  Biso   1.000  Zn
  C141     1.0000 0.96717  0.30483  0.15703  Biso   1.000  C
  H101     1.0000 0.92847  0.26303  0.16133  Biso   1.000  H
  C142     1.0000 0.05787  0.38813  0.10693  Biso   1.000  C
  C143     1.0000 0.11377  0.43193  0.06113  Biso   1.000  C
  H102     1.0000 0.12307  0.42023  0.00853  Biso   1.000  H
  C144     1.0000 0.15497  0.49373  0.09633  Biso   1.000  C
  H103     1.0000 0.19287  0.52463  0.06663  Biso   1.000  H
  C145     1.0000 0.14157  0.51183  0.17703  Biso   1.000  C
  H104     1.0000 0.17067  0.55433  0.19883  Biso   1.000  H
  C146     1.0000 0.04447  0.40593  0.18703  Biso   1.000  C
  C147     1.0000 0.08667  0.46793  0.22323  Biso   1.000  C
  H105     1.0000 0.07807  0.47923  0.27663  Biso   1.000  H
  C148     1.0000 0.85847  0.13213  0.99353  Biso   1.000  C
  H106     1.0000 0.84227  0.14363  0.94623  Biso   1.000  H
  C149     1.0000 0.86327  0.07633  0.09723  Biso   1.000  C
  C150     1.0000 0.85267  0.02943  0.16323  Biso   1.000  C
  H107     1.0000 0.81227  0.98933  0.16753  Biso   1.000  H
  C151     1.0000 0.92237  0.13613  0.09333  Biso   1.000  C
  C152     1.0000 0.97617  0.15363  0.15313  Biso   1.000  C
  H108     1.0000 0.01617  0.19443  0.15013  Biso   1.000  H
  C153     1.0000 0.90297  0.04473  0.21953  Biso   1.000  C
  H109     1.0000 0.89647  0.01393  0.26193  Biso   1.000  H
  C154     1.0000 0.96497  0.10623  0.21583  Biso   1.000  C
  H110     1.0000 0.99837  0.11493  0.25533  Biso   1.000  H
  N41      1.0000 0.00777  0.32203  0.09003  Biso   1.000  N
  N42      1.0000 0.91867  0.17293  0.02413  Biso   1.000  N
  N43      1.0000 0.98547  0.35143  0.21813  Biso   1.000  N
  N44      1.0000 0.82217  0.07433  0.03273  Biso   1.000  N
  Zn11     1.0000 0.99477  0.26286  0.99173  Biso   1.000  Zn
  C155     1.0000 0.63383  0.63817  0.49037  Biso   1.000  C
  H111     1.0000 0.59513  0.59637  0.49467  Biso   1.000  H
  C156     1.0000 0.72453  0.72147  0.44027  Biso   1.000  C
  C157     1.0000 0.78043  0.76527  0.39447  Biso   1.000  C
  H112     1.0000 0.78973  0.75357  0.34187  Biso   1.000  H
  C158     1.0000 0.82163  0.82707  0.42967  Biso   1.000  C
  H113     1.0000 0.85953  0.85797  0.39997  Biso   1.000  H
  C159     1.0000 0.80823  0.84517  0.51037  Biso   1.000  C
  H114     1.0000 0.83733  0.88767  0.53217  Biso   1.000  H
  C160     1.0000 0.71113  0.73927  0.52037  Biso   1.000  C
  C161     1.0000 0.75333  0.80127  0.55657  Biso   1.000  C
  H115     1.0000 0.74473  0.81257  0.60997  Biso   1.000  H
  C162     1.0000 0.52513  0.46547  0.32687  Biso   1.000  C
  H116     1.0000 0.50893  0.47697  0.27957  Biso   1.000  H
  C163     1.0000 0.52993  0.40967  0.43057  Biso   1.000  C
  C164     1.0000 0.51933  0.36277  0.49657  Biso   1.000  C
  H117     1.0000 0.47893  0.32267  0.50087  Biso   1.000  H
  C165     1.0000 0.58903  0.46947  0.42667  Biso   1.000  C
  C166     1.0000 0.64283  0.48697  0.48647  Biso   1.000  C
  H118     1.0000 0.68283  0.52777  0.48347  Biso   1.000  H
  C167     1.0000 0.56963  0.37807  0.55287  Biso   1.000  C
  H119     1.0000 0.56313  0.34727  0.59527  Biso   1.000  H
  C168     1.0000 0.63163  0.43957  0.54917  Biso   1.000  C
  H120     1.0000 0.66503  0.44827  0.58867  Biso   1.000  H
  N45      1.0000 0.67443  0.65537  0.42337  Biso   1.000  N
  N46      1.0000 0.58533  0.50627  0.35747  Biso   1.000  N
  N47      1.0000 0.65213  0.68477  0.55147  Biso   1.000  N
  N48      1.0000 0.48883  0.40767  0.36607  Biso   1.000  N
  Zn12     1.0000 0.66143  0.59620  0.32507  Biso   1.000  Zn
  C169     1.0000 0.02850  0.32900  0.82370  Biso   1.000  C
  H121     1.0000 0.07030  0.33210  0.82800  Biso   1.000  H
  C170     1.0000 0.94520  0.33640  0.77360  Biso   1.000  C
  C171     1.0000 0.90140  0.34850  0.72780  Biso   1.000  C
  H122     1.0000 0.91310  0.36950  0.67520  Biso   1.000  H
  C172     1.0000 0.83960  0.32790  0.76300  Biso   1.000  C
  H123     1.0000 0.80870  0.33490  0.73330  Biso   1.000  H
  C173     1.0000 0.82150  0.29640  0.84370  Biso   1.000  C
  H124     1.0000 0.77900  0.28300  0.86550  Biso   1.000  H
  C174     1.0000 0.92740  0.30520  0.85370  Biso   1.000  C
  C175     1.0000 0.86540  0.28540  0.88990  Biso   1.000  C
  H125     1.0000 0.85410  0.26550  0.94330  Biso   1.000  H
  C176     1.0000 0.20120  0.39300  0.66020  Biso   1.000  C
  H126     1.0000 0.18970  0.36530  0.61290  Biso   1.000  H
  C177     1.0000 0.25700  0.45360  0.76390  Biso   1.000  C
  C178     1.0000 0.30390  0.48990  0.82990  Biso   1.000  C
  H127     1.0000 0.34400  0.48960  0.83420  Biso   1.000  H
  C179     1.0000 0.19720  0.45290  0.76000  Biso   1.000  C
  C180     1.0000 0.17970  0.48920  0.81980  Biso   1.000  C
  H128     1.0000 0.13890  0.48840  0.81680  Biso   1.000  H
  C181     1.0000 0.28860  0.52490  0.88620  Biso   1.000  C
  H129     1.0000 0.31940  0.54920  0.92860  Biso   1.000  H
  C182     1.0000 0.22710  0.52540  0.88250  Biso   1.000  C
  H130     1.0000 0.21840  0.55010  0.92200  Biso   1.000  H
  N49      1.0000 0.01130  0.35240  0.75670  Biso   1.000  N
  N50      1.0000 0.16040  0.41240  0.69080  Biso   1.000  N
  N51      1.0000 0.98190  0.30070  0.88480  Biso   1.000  N
  N52      1.0000 0.25900  0.41450  0.69940  Biso   1.000  N
  Zn13     1.0000 0.07047  0.39857  0.65840  Biso   1.000  Zn
  C183     1.0000 0.69517  0.66233  0.15703  Biso   1.000  C
  H131     1.0000 0.73697  0.66543  0.16133  Biso   1.000  H
  C184     1.0000 0.61187  0.66973  0.10693  Biso   1.000  C
  C185     1.0000 0.56807  0.68183  0.06113  Biso   1.000  C
  H132     1.0000 0.57977  0.70283  0.00853  Biso   1.000  H
  C186     1.0000 0.50627  0.66123  0.09633  Biso   1.000  C
  H133     1.0000 0.47537  0.66823  0.06663  Biso   1.000  H
  C187     1.0000 0.48817  0.62973  0.17703  Biso   1.000  C
  H134     1.0000 0.44567  0.61633  0.19883  Biso   1.000  H
  C188     1.0000 0.59407  0.63853  0.18703  Biso   1.000  C
  C189     1.0000 0.53207  0.61873  0.22323  Biso   1.000  C
  H135     1.0000 0.52077  0.59883  0.27663  Biso   1.000  H
  C190     1.0000 0.86787  0.72633  0.99353  Biso   1.000  C
  H136     1.0000 0.85637  0.69863  0.94623  Biso   1.000  H
  C191     1.0000 0.92367  0.78693  0.09723  Biso   1.000  C
  C192     1.0000 0.97057  0.82323  0.16323  Biso   1.000  C
  H137     1.0000 0.01067  0.82293  0.16753  Biso   1.000  H
  C193     1.0000 0.86387  0.78623  0.09333  Biso   1.000  C
  C194     1.0000 0.84637  0.82253  0.15313  Biso   1.000  C
  H138     1.0000 0.80557  0.82173  0.15013  Biso   1.000  H
  C195     1.0000 0.95527  0.85823  0.21953  Biso   1.000  C
  H139     1.0000 0.98607  0.88253  0.26193  Biso   1.000  H
  C196     1.0000 0.89377  0.85873  0.21583  Biso   1.000  C
  H140     1.0000 0.88507  0.88343  0.25533  Biso   1.000  H
  N53      1.0000 0.67797  0.68573  0.09003  Biso   1.000  N
  N54      1.0000 0.82707  0.74573  0.02413  Biso   1.000  N
  N55      1.0000 0.64857  0.63403  0.21813  Biso   1.000  N
  N56      1.0000 0.92567  0.74783  0.03273  Biso   1.000  N
  Zn14     1.0000 0.73714  0.73190  0.99173  Biso   1.000  Zn
  C197     1.0000 0.36183  0.99567  0.49037  Biso   1.000  C
  H141     1.0000 0.40363  0.99877  0.49467  Biso   1.000  H
  C198     1.0000 0.27853  0.00307  0.44027  Biso   1.000  C
  C199     1.0000 0.23473  0.01517  0.39447  Biso   1.000  C
  H142     1.0000 0.24643  0.03617  0.34187  Biso   1.000  H
  C200     1.0000 0.17293  0.99457  0.42967  Biso   1.000  C
  H143     1.0000 0.14203  0.00157  0.39997  Biso   1.000  H
  C201     1.0000 0.15483  0.96307  0.51037  Biso   1.000  C
  H144     1.0000 0.11233  0.94967  0.53217  Biso   1.000  H
  C202     1.0000 0.26073  0.97187  0.52037  Biso   1.000  C
  C203     1.0000 0.19873  0.95207  0.55657  Biso   1.000  C
  H145     1.0000 0.18743  0.93217  0.60997  Biso   1.000  H
  C204     1.0000 0.53453  0.05967  0.32687  Biso   1.000  C
  H146     1.0000 0.52303  0.03197  0.27957  Biso   1.000  H
  C205     1.0000 0.59033  0.12027  0.43057  Biso   1.000  C
  C206     1.0000 0.63723  0.15657  0.49657  Biso   1.000  C
  H147     1.0000 0.67733  0.15627  0.50087  Biso   1.000  H
  C207     1.0000 0.53053  0.11957  0.42667  Biso   1.000  C
  C208     1.0000 0.51303  0.15587  0.48647  Biso   1.000  C
  H148     1.0000 0.47223  0.15507  0.48347  Biso   1.000  H
  C209     1.0000 0.62193  0.19157  0.55287  Biso   1.000  C
  H149     1.0000 0.65273  0.21587  0.59527  Biso   1.000  H
  C210     1.0000 0.56043  0.19207  0.54917  Biso   1.000  C
  H150     1.0000 0.55173  0.21677  0.58867  Biso   1.000  H
  N57      1.0000 0.34463  0.01907  0.42337  Biso   1.000  N
  N58      1.0000 0.49373  0.07907  0.35747  Biso   1.000  N
  N59      1.0000 0.31523  0.96737  0.55147  Biso   1.000  N
  N60      1.0000 0.59233  0.08117  0.36607  Biso   1.000  N
  Zn15     1.0000 0.40380  0.06524  0.32507  Biso   1.000  Zn
  C211     1.0000 0.67100  0.69950  0.82370  Biso   1.000  C
  H151     1.0000 0.66790  0.73820  0.82800  Biso   1.000  H
  C212     1.0000 0.66360  0.60880  0.77360  Biso   1.000  C
  C213     1.0000 0.65150  0.55290  0.72780  Biso   1.000  C
  H152     1.0000 0.63050  0.54360  0.67520  Biso   1.000  H
  C214     1.0000 0.67210  0.51170  0.76300  Biso   1.000  C
  H153     1.0000 0.66510  0.47380  0.73330  Biso   1.000  H
  C215     1.0000 0.70360  0.52510  0.84370  Biso   1.000  C
  H154     1.0000 0.71700  0.49600  0.86550  Biso   1.000  H
  C216     1.0000 0.69480  0.62220  0.85370  Biso   1.000  C
  C217     1.0000 0.71460  0.58000  0.88990  Biso   1.000  C
  H155     1.0000 0.73450  0.58860  0.94330  Biso   1.000  H
  C218     1.0000 0.60700  0.80820  0.66020  Biso   1.000  C
  H156     1.0000 0.63470  0.82440  0.61290  Biso   1.000  H
  C219     1.0000 0.54640  0.80340  0.76390  Biso   1.000  C
  C220     1.0000 0.51010  0.81400  0.82990  Biso   1.000  C
  H157     1.0000 0.51040  0.85440  0.83420  Biso   1.000  H
  C221     1.0000 0.54710  0.74430  0.76000  Biso   1.000  C
  C222     1.0000 0.51080  0.69050  0.81980  Biso   1.000  C
  H158     1.0000 0.51160  0.65050  0.81680  Biso   1.000  H
  C223     1.0000 0.47510  0.76370  0.88620  Biso   1.000  C
  H159     1.0000 0.45080  0.77020  0.92860  Biso   1.000  H
  C224     1.0000 0.47460  0.70170  0.88250  Biso   1.000  C
  H160     1.0000 0.44990  0.66830  0.92200  Biso   1.000  H
  N61      1.0000 0.64760  0.65890  0.75670  Biso   1.000  N
  N62      1.0000 0.58760  0.74800  0.69080  Biso   1.000  N
  N63      1.0000 0.69930  0.68120  0.88480  Biso   1.000  N
  N64      1.0000 0.58550  0.84450  0.69940  Biso   1.000  N
  Zn16     1.0000 0.60143  0.67190  0.65840  Biso   1.000  Zn
  C225     1.0000 0.33767  0.03283  0.15703  Biso   1.000  C
  H161     1.0000 0.33457  0.07153  0.16133  Biso   1.000  H
  C226     1.0000 0.33027  0.94213  0.10693  Biso   1.000  C
  C227     1.0000 0.31817  0.88623  0.06113  Biso   1.000  C
  H162     1.0000 0.29717  0.87693  0.00853  Biso   1.000  H
  C228     1.0000 0.33877  0.84503  0.09633  Biso   1.000  C
  H163     1.0000 0.33177  0.80713  0.06663  Biso   1.000  H
  C229     1.0000 0.37027  0.85843  0.17703  Biso   1.000  C
  H164     1.0000 0.38367  0.82933  0.19883  Biso   1.000  H
  C230     1.0000 0.36147  0.95553  0.18703  Biso   1.000  C
  C231     1.0000 0.38127  0.91333  0.22323  Biso   1.000  C
  H165     1.0000 0.40117  0.92193  0.27663  Biso   1.000  H
  C232     1.0000 0.27367  0.14153  0.99353  Biso   1.000  C
  H166     1.0000 0.30137  0.15773  0.94623  Biso   1.000  H
  C233     1.0000 0.21307  0.13673  0.09723  Biso   1.000  C
  C234     1.0000 0.17677  0.14733  0.16323  Biso   1.000  C
  H167     1.0000 0.17707  0.18773  0.16753  Biso   1.000  H
  C235     1.0000 0.21377  0.07763  0.09333  Biso   1.000  C
  C236     1.0000 0.17747  0.02383  0.15313  Biso   1.000  C
  H168     1.0000 0.17827  0.98383  0.15013  Biso   1.000  H
  C237     1.0000 0.14177  0.09703  0.21953  Biso   1.000  C
  H169     1.0000 0.11747  0.10353  0.26193  Biso   1.000  H
  C238     1.0000 0.14127  0.03503  0.21583  Biso   1.000  C
  H170     1.0000 0.11657  0.00163  0.25533  Biso   1.000  H
  N65      1.0000 0.31427  0.99223  0.09003  Biso   1.000  N
  N66      1.0000 0.25427  0.08133  0.02413  Biso   1.000  N
  N67      1.0000 0.36597  0.01453  0.21813  Biso   1.000  N
  N68      1.0000 0.25217  0.17783  0.03273  Biso   1.000  N
  Zn17     1.0000 0.26810  0.00523  0.99173  Biso   1.000  Zn
  C239     1.0000 0.00433  0.36617  0.49037  Biso   1.000  C
  H171     1.0000 0.00123  0.40487  0.49467  Biso   1.000  H
  C240     1.0000 0.99693  0.27547  0.44027  Biso   1.000  C
  C241     1.0000 0.98483  0.21957  0.39447  Biso   1.000  C
  H172     1.0000 0.96383  0.21027  0.34187  Biso   1.000  H
  C242     1.0000 0.00543  0.17837  0.42967  Biso   1.000  C
  H173     1.0000 0.99843  0.14047  0.39997  Biso   1.000  H
  C243     1.0000 0.03693  0.19177  0.51037  Biso   1.000  C
  H174     1.0000 0.05033  0.16267  0.53217  Biso   1.000  H
  C244     1.0000 0.02813  0.28887  0.52037  Biso   1.000  C
  C245     1.0000 0.04793  0.24667  0.55657  Biso   1.000  C
  H175     1.0000 0.06783  0.25527  0.60997  Biso   1.000  H
  C246     1.0000 0.94033  0.47487  0.32687  Biso   1.000  C
  H176     1.0000 0.96803  0.49107  0.27957  Biso   1.000  H
  C247     1.0000 0.87973  0.47007  0.43057  Biso   1.000  C
  C248     1.0000 0.84343  0.48067  0.49657  Biso   1.000  C
  H177     1.0000 0.84373  0.52107  0.50087  Biso   1.000  H
  C249     1.0000 0.88043  0.41097  0.42667  Biso   1.000  C
  C250     1.0000 0.84413  0.35717  0.48647  Biso   1.000  C
  H178     1.0000 0.84493  0.31717  0.48347  Biso   1.000  H
  C251     1.0000 0.80843  0.43037  0.55287  Biso   1.000  C
  H179     1.0000 0.78413  0.43687  0.59527  Biso   1.000  H
  C252     1.0000 0.80793  0.36837  0.54917  Biso   1.000  C
  H180     1.0000 0.78323  0.33497  0.58867  Biso   1.000  H
  N69      1.0000 0.98093  0.32557  0.42337  Biso   1.000  N
  N70      1.0000 0.92093  0.41467  0.35747  Biso   1.000  N
  N71      1.0000 0.03263  0.34787  0.55147  Biso   1.000  N
  N72      1.0000 0.91883  0.51117  0.36607  Biso   1.000  N
  Zn18     1.0000 0.93476  0.33857  0.32507  Biso   1.000  Zn
