data_image0
_cell_length_a       36.6982
_cell_length_b       36.6982
_cell_length_c       6.93828
_cell_angle_alpha    90
_cell_angle_beta     90
_cell_angle_gamma    120

_symmetry_space_group_name_H-M    "P 1"
_symmetry_int_tables_number       1

loop_
  _symmetry_equiv_pos_as_xyz
  'x, y, z'

loop_
  _atom_site_label
  _atom_site_occupancy
  _atom_site_fract_x
  _atom_site_fract_y
  _atom_site_fract_z
  _atom_site_thermal_displace_type
  _atom_site_B_iso_or_equiv
  _atom_site_type_symbol
  C1       1.0000 0.01357  0.58780  0.71593  Biso   1.000  C 
  C2       1.0000 0.50638  0.98341  0.74715  Biso   1.000  C 
  C3       1.0000 0.65006  0.81037  0.58606  Biso   1.000  C 
  C4       1.0000 0.18963  0.83969  0.58606  Biso   1.000  C 
  C5       1.0000 0.16031  0.34994  0.58606  Biso   1.000  C 
  C6       1.0000 0.68813  0.89017  0.97288  Biso   1.000  C 
  C7       1.0000 0.10983  0.79796  0.97288  Biso   1.000  C 
  C8       1.0000 0.20204  0.31187  0.97287  Biso   1.000  C 
  C9       1.0000 0.47703  0.49362  0.74715  Biso   1.000  C 
  C10      1.0000 0.31187  0.10983  0.02712  Biso   1.000  C 
  C11      1.0000 0.79796  0.68813  0.02713  Biso   1.000  C 
  C12      1.0000 0.35482  0.22350  0.30643  Biso   1.000  C 
  C13      1.0000 0.77650  0.13131  0.30643  Biso   1.000  C 
  C14      1.0000 0.86869  0.64518  0.30643  Biso   1.000  C 
  C15      1.0000 0.97852  0.44314  0.36028  Biso   1.000  C 
  C16      1.0000 0.55686  0.53538  0.36028  Biso   1.000  C 
  C17      1.0000 0.46462  0.02148  0.36028  Biso   1.000  C 
  C18      1.0000 0.89017  0.20204  0.02712  Biso   1.000  C 
  C19      1.0000 0.01659  0.52297  0.74715  Biso   1.000  C 
  C20      1.0000 0.49362  0.01659  0.25285  Biso   1.000  C 
  C21      1.0000 0.52297  0.50638  0.25285  Biso   1.000  C 
  C22      1.0000 0.48498  0.00329  0.05850  Biso   1.000  C 
  C23      1.0000 0.00329  0.51831  0.94150  Biso   1.000  C 
  C24      1.0000 0.48169  0.48498  0.94150  Biso   1.000  C 
  C25      1.0000 0.51502  0.99671  0.94150  Biso   1.000  C 
  C26      1.0000 0.66336  0.81501  0.39171  Biso   1.000  C 
  C27      1.0000 0.18499  0.84835  0.39171  Biso   1.000  C 
  C28      1.0000 0.15165  0.33664  0.39171  Biso   1.000  C 
  C29      1.0000 0.68324  0.85628  0.08033  Biso   1.000  C 
  C30      1.0000 0.14372  0.82696  0.08033  Biso   1.000  C 
  C31      1.0000 0.17304  0.31676  0.08033  Biso   1.000  C 
  C32      1.0000 0.31676  0.14372  0.91967  Biso   1.000  C 
  C33      1.0000 0.85628  0.17304  0.91967  Biso   1.000  C 
  C34      1.0000 0.82696  0.68324  0.91967  Biso   1.000  C 
  C35      1.0000 0.34994  0.18963  0.41394  Biso   1.000  C 
  C36      1.0000 0.81037  0.16031  0.41394  Biso   1.000  C 
  C37      1.0000 0.83969  0.65006  0.41394  Biso   1.000  C 
  C38      1.0000 0.98341  0.47703  0.25285  Biso   1.000  C 
  C39      1.0000 0.02148  0.55686  0.63972  Biso   1.000  C 
  C40      1.0000 0.51831  0.51502  0.05850  Biso   1.000  C 
  C41      1.0000 0.44314  0.46462  0.63972  Biso   1.000  C 
  C42      1.0000 0.64518  0.77650  0.69357  Biso   1.000  C 
  C43      1.0000 0.77310  0.78457  0.42273  Biso   1.000  C 
  C44      1.0000 0.21543  0.98853  0.42273  Biso   1.000  C 
  C45      1.0000 0.29734  0.46199  0.19013  Biso   1.000  C 
  C46      1.0000 0.53801  0.83535  0.19013  Biso   1.000  C 
  C47      1.0000 0.16465  0.70266  0.19013  Biso   1.000  C 
  C48      1.0000 0.70266  0.53801  0.80987  Biso   1.000  C 
  C49      1.0000 0.46199  0.16465  0.80986  Biso   1.000  C 
  C50      1.0000 0.01147  0.22690  0.42273  Biso   1.000  C 
  C51      1.0000 0.83535  0.29734  0.80987  Biso   1.000  C 
  C52      1.0000 0.20468  0.16868  0.52353  Biso   1.000  C 
  C53      1.0000 0.83132  0.03600  0.52352  Biso   1.000  C 
  C54      1.0000 0.36932  0.87133  0.14310  Biso   1.000  C 
  C55      1.0000 0.12867  0.49799  0.14310  Biso   1.000  C 
  C56      1.0000 0.50202  0.63068  0.14310  Biso   1.000  C 
  C57      1.0000 0.63068  0.12867  0.85690  Biso   1.000  C 
  C58      1.0000 0.87133  0.50201  0.85690  Biso   1.000  C 
  C59      1.0000 0.96400  0.79532  0.52352  Biso   1.000  C 
  C60      1.0000 0.45124  0.34479  0.91065  Biso   1.000  C 
  C61      1.0000 0.89355  0.54876  0.91065  Biso   1.000  C 
  C62      1.0000 0.65521  0.10645  0.91065  Biso   1.000  C 
  C63      1.0000 0.22350  0.86869  0.69357  Biso   1.000  C 
  C64      1.0000 0.13131  0.35482  0.69357  Biso   1.000  C 
  C65      1.0000 0.49798  0.36932  0.85690  Biso   1.000  C 
  C66      1.0000 0.16868  0.96400  0.47648  Biso   1.000  C 
  C67      1.0000 0.79532  0.83132  0.47647  Biso   1.000  C 
  C68      1.0000 0.32187  0.43977  0.24391  Biso   1.000  C 
  C69      1.0000 0.56022  0.88210  0.24391  Biso   1.000  C 
  C70      1.0000 0.11790  0.67813  0.24391  Biso   1.000  C 
  C71      1.0000 0.67813  0.56023  0.75609  Biso   1.000  C 
  C72      1.0000 0.43978  0.11790  0.75609  Biso   1.000  C 
  C73      1.0000 0.88210  0.32187  0.75609  Biso   1.000  C 
  C74      1.0000 0.98853  0.77310  0.57727  Biso   1.000  C 
  C75      1.0000 0.22690  0.21543  0.57727  Biso   1.000  C 
  C76      1.0000 0.78457  0.01147  0.57727  Biso   1.000  C 
  C77      1.0000 0.34479  0.89355  0.08935  Biso   1.000  C 
  C78      1.0000 0.10645  0.45124  0.08935  Biso   1.000  C 
  C79      1.0000 0.54876  0.65521  0.08935  Biso   1.000  C 
  C80      1.0000 0.53538  0.97852  0.63972  Biso   1.000  C 
  C81      1.0000 0.99671  0.48169  0.05850  Biso   1.000  C 
  C82      1.0000 0.03600  0.20468  0.47648  Biso   1.000  C 
  C83      1.0000 0.81501  0.15165  0.60829  Biso   1.000  C 
  C84      1.0000 0.90755  0.65309  0.38257  Biso   1.000  C 
  C85      1.0000 0.74554  0.09245  0.38257  Biso   1.000  C 
  C86      1.0000 0.34691  0.25446  0.38257  Biso   1.000  C 
  C87      1.0000 0.09245  0.34691  0.61743  Biso   1.000  C 
  C88      1.0000 0.25446  0.90755  0.61743  Biso   1.000  C 
  C89      1.0000 0.65309  0.74554  0.61743  Biso   1.000  C 
  C90      1.0000 0.24089  0.31976  0.04908  Biso   1.000  C 
  C91      1.0000 0.31976  0.07887  0.95092  Biso   1.000  C 
  C92      1.0000 0.07887  0.75911  0.04908  Biso   1.000  C 
  C93      1.0000 0.42577  0.01357  0.28407  Biso   1.000  C 
  C94      1.0000 0.58780  0.57423  0.28407  Biso   1.000  C 
  C95      1.0000 0.98643  0.41220  0.28407  Biso   1.000  C 
  C96      1.0000 0.57423  0.98643  0.71593  Biso   1.000  C 
  C97      1.0000 0.41220  0.42577  0.71593  Biso   1.000  C 
  C98      1.0000 0.66760  0.91756  0.24680  Biso   1.000  C 
  C99      1.0000 0.08244  0.75004  0.24680  Biso   1.000  C 
  C100     1.0000 0.68024  0.92113  0.04908  Biso   1.000  C 
  C101     1.0000 0.92113  0.24089  0.95092  Biso   1.000  C 
  C102     1.0000 0.75911  0.68024  0.95092  Biso   1.000  C 
  C103     1.0000 0.31468  0.04448  0.08100  Biso   1.000  C 
  C104     1.0000 0.84835  0.66336  0.60829  Biso   1.000  C 
  C105     1.0000 0.37782  0.39646  0.58578  Biso   1.000  C 
  C106     1.0000 0.01863  0.62218  0.58578  Biso   1.000  C 
  C107     1.0000 0.06314  0.35197  0.74759  Biso   1.000  C 
  C108     1.0000 0.28883  0.93686  0.74759  Biso   1.000  C 
  C109     1.0000 0.64803  0.71117  0.74759  Biso   1.000  C 
  C110     1.0000 0.93686  0.64803  0.25241  Biso   1.000  C 
  C111     1.0000 0.71117  0.06314  0.25241  Biso   1.000  C 
  C112     1.0000 0.35197  0.28883  0.25241  Biso   1.000  C 
  C113     1.0000 0.39646  0.01863  0.41422  Biso   1.000  C 
  C114     1.0000 0.60354  0.98137  0.58578  Biso   1.000  C 
  C115     1.0000 0.62218  0.60354  0.41422  Biso   1.000  C 
  C116     1.0000 0.98137  0.37782  0.41422  Biso   1.000  C 
  C117     1.0000 0.04448  0.72980  0.91900  Biso   1.000  C 
  C118     1.0000 0.68532  0.95552  0.91900  Biso   1.000  C 
  C119     1.0000 0.72980  0.68532  0.08100  Biso   1.000  C 
  C120     1.0000 0.95552  0.27020  0.08100  Biso   1.000  C 
  C121     1.0000 0.24996  0.33240  0.24680  Biso   1.000  C 
  C122     1.0000 0.33240  0.08244  0.75320  Biso   1.000  C 
  C123     1.0000 0.27020  0.31468  0.91900  Biso   1.000  C 
  C124     1.0000 0.75004  0.66760  0.75320  Biso   1.000  C 
  C125     1.0000 0.00359  0.45059  0.97986  Biso   1.000  C 
  C126     1.0000 0.54941  0.55300  0.97986  Biso   1.000  C 
  C127     1.0000 0.44700  0.99641  0.97986  Biso   1.000  C 
  C128     1.0000 0.99641  0.54941  0.02014  Biso   1.000  C 
  C129     1.0000 0.45059  0.44700  0.02014  Biso   1.000  C 
  C130     1.0000 0.55300  0.00359  0.02014  Biso   1.000  C 
  C131     1.0000 0.67024  0.78391  0.31315  Biso   1.000  C 
  C132     1.0000 0.88634  0.67024  0.68685  Biso   1.000  C 
  C133     1.0000 0.21609  0.88634  0.31315  Biso   1.000  C 
  C134     1.0000 0.14836  0.81831  0.27470  Biso   1.000  C 
  C135     1.0000 0.18169  0.33005  0.27470  Biso   1.000  C 
  C136     1.0000 0.33005  0.14837  0.72530  Biso   1.000  C 
  C137     1.0000 0.85164  0.18169  0.72530  Biso   1.000  C 
  C138     1.0000 0.81831  0.66995  0.72530  Biso   1.000  C 
  C139     1.0000 0.91756  0.24996  0.75320  Biso   1.000  C 
  C140     1.0000 0.33664  0.18499  0.60829  Biso   1.000  C 
  C141     1.0000 0.66995  0.85163  0.27470  Biso   1.000  C 
  C142     1.0000 0.78391  0.11366  0.68685  Biso   1.000  C 
  C143     1.0000 0.11366  0.32976  0.31315  Biso   1.000  C 
  C144     1.0000 0.78034  0.66308  0.64670  Biso   1.000  C 
  C145     1.0000 0.74910  0.08338  0.58029  Biso   1.000  C 
  C146     1.0000 0.32976  0.21609  0.68685  Biso   1.000  C 
  C147     1.0000 0.33428  0.25090  0.58029  Biso   1.000  C 
  C148     1.0000 0.91662  0.66572  0.58029  Biso   1.000  C 
  C149     1.0000 0.99907  0.41577  0.08638  Biso   1.000  C 
  C150     1.0000 0.58423  0.58330  0.08638  Biso   1.000  C 
  C151     1.0000 0.00093  0.58423  0.91362  Biso   1.000  C 
  C152     1.0000 0.41577  0.41670  0.91362  Biso   1.000  C 
  C153     1.0000 0.58330  0.99907  0.91362  Biso   1.000  C 
  C154     1.0000 0.41670  0.00093  0.08638  Biso   1.000  C 
  C155     1.0000 0.25090  0.91662  0.41971  Biso   1.000  C 
  C156     1.0000 0.08338  0.33428  0.41971  Biso   1.000  C 
  C157     1.0000 0.66308  0.88275  0.35330  Biso   1.000  C 
  C158     1.0000 0.11725  0.78034  0.35330  Biso   1.000  C 
  C159     1.0000 0.88275  0.21966  0.64670  Biso   1.000  C 
  C160     1.0000 0.21966  0.33692  0.35330  Biso   1.000  C 
  C161     1.0000 0.66572  0.74910  0.41971  Biso   1.000  C 
  C162     1.0000 0.33692  0.11725  0.64670  Biso   1.000  C 
  H1       1.0000 0.47813  0.60416  0.87858  Biso   1.000  H 
  H2       1.0000 0.26735  0.43892  0.12244  Biso   1.000  H 
  H3       1.0000 0.14480  0.93748  0.21195  Biso   1.000  H 
  H4       1.0000 0.79268  0.85520  0.21195  Biso   1.000  H 
  H5       1.0000 0.87397  0.47813  0.12142  Biso   1.000  H 
  H6       1.0000 0.52187  0.39584  0.12142  Biso   1.000  H 
  H7       1.0000 0.60416  0.12603  0.12142  Biso   1.000  H 
  H8       1.0000 0.12603  0.52187  0.87858  Biso   1.000  H 
  H9       1.0000 0.56108  0.82843  0.12244  Biso   1.000  H 
  H10      1.0000 0.06252  0.20732  0.21195  Biso   1.000  H 
  H11      1.0000 0.17157  0.73265  0.12244  Biso   1.000  H 
  H12      1.0000 0.10560  0.50491  0.21080  Biso   1.000  H 
  H13      1.0000 0.43892  0.17157  0.87756  Biso   1.000  H 
  H14      1.0000 0.82843  0.26735  0.87756  Biso   1.000  H 
  H15      1.0000 0.93401  0.77224  0.45585  Biso   1.000  H 
  H16      1.0000 0.22776  0.16176  0.45585  Biso   1.000  H 
  H17      1.0000 0.83824  0.06599  0.45585  Biso   1.000  H 
  H18      1.0000 0.39931  0.89440  0.21080  Biso   1.000  H 
  H19      1.0000 0.49509  0.60069  0.21080  Biso   1.000  H 
  H20      1.0000 0.60069  0.10560  0.78920  Biso   1.000  H 
  H21      1.0000 0.89440  0.49509  0.78920  Biso   1.000  H 
  H22      1.0000 0.39584  0.87397  0.87858  Biso   1.000  H 
  H23      1.0000 0.50491  0.39931  0.78920  Biso   1.000  H 
  H24      1.0000 0.73265  0.56108  0.87756  Biso   1.000  H 
  H25      1.0000 0.85520  0.06252  0.78805  Biso   1.000  H 
  H26      1.0000 0.16277  0.14399  0.74937  Biso   1.000  H 
  H27      1.0000 0.93748  0.79268  0.78805  Biso   1.000  H 
  H28      1.0000 0.06599  0.22776  0.54415  Biso   1.000  H 
  H29      1.0000 0.31456  0.50390  0.41601  Biso   1.000  H 
  H30      1.0000 0.49610  0.81066  0.41601  Biso   1.000  H 
  H31      1.0000 0.18934  0.68544  0.41601  Biso   1.000  H 
  H32      1.0000 0.68544  0.49610  0.58399  Biso   1.000  H 
  H33      1.0000 0.50390  0.18934  0.58399  Biso   1.000  H 
  H34      1.0000 0.81066  0.31456  0.58399  Biso   1.000  H 
  H35      1.0000 0.98122  0.83723  0.74937  Biso   1.000  H 
  H36      1.0000 0.85601  0.01878  0.74937  Biso   1.000  H 
  H37      1.0000 0.35209  0.82942  0.91723  Biso   1.000  H 
  H38      1.0000 0.17058  0.52267  0.91723  Biso   1.000  H 
  H39      1.0000 0.20732  0.14480  0.78805  Biso   1.000  H 
  H40      1.0000 0.47733  0.64791  0.91723  Biso   1.000  H 
  H41      1.0000 0.82942  0.47733  0.08277  Biso   1.000  H 
  H42      1.0000 0.52267  0.35209  0.08277  Biso   1.000  H 
  H43      1.0000 0.01878  0.16277  0.25063  Biso   1.000  H 
  H44      1.0000 0.83723  0.85601  0.25063  Biso   1.000  H 
  H45      1.0000 0.14399  0.98122  0.25063  Biso   1.000  H 
  H46      1.0000 0.27082  0.45935  0.45465  Biso   1.000  H 
  H47      1.0000 0.54065  0.81147  0.45465  Biso   1.000  H 
  H48      1.0000 0.18853  0.72918  0.45465  Biso   1.000  H 
  H49      1.0000 0.72918  0.54065  0.54535  Biso   1.000  H 
  H50      1.0000 0.45935  0.18853  0.54535  Biso   1.000  H 
  H51      1.0000 0.81147  0.27082  0.54535  Biso   1.000  H 
  H52      1.0000 0.64791  0.17058  0.08277  Biso   1.000  H 
  H53      1.0000 0.77224  0.83824  0.54415  Biso   1.000  H 
  H54      1.0000 0.69507  0.58325  0.64119  Biso   1.000  H 
  H55      1.0000 0.31487  0.48650  0.08131  Biso   1.000  H 
  H56      1.0000 0.56662  0.63436  0.32733  Biso   1.000  H 
  H57      1.0000 0.06774  0.43338  0.32733  Biso   1.000  H 
  H58      1.0000 0.36564  0.93226  0.32733  Biso   1.000  H 
  H59      1.0000 0.26561  0.23328  0.33929  Biso   1.000  H 
  H60      1.0000 0.96767  0.73439  0.33929  Biso   1.000  H 
  H61      1.0000 0.89997  0.30103  0.99407  Biso   1.000  H 
  H62      1.0000 0.40106  0.10003  0.99407  Biso   1.000  H 
  H63      1.0000 0.69897  0.59894  0.99407  Biso   1.000  H 
  H64      1.0000 0.63436  0.06774  0.67267  Biso   1.000  H 
  H65      1.0000 0.10003  0.69897  0.00593  Biso   1.000  H 
  H66      1.0000 0.30103  0.40106  0.00593  Biso   1.000  H 
  H67      1.0000 0.22402  0.01962  0.36396  Biso   1.000  H 
  H68      1.0000 0.79560  0.77598  0.36396  Biso   1.000  H 
  H69      1.0000 0.98038  0.20440  0.36396  Biso   1.000  H 
  H70      1.0000 0.44265  0.31370  0.96944  Biso   1.000  H 
  H71      1.0000 0.87106  0.55735  0.96944  Biso   1.000  H 
  H72      1.0000 0.68630  0.12894  0.96944  Biso   1.000  H 
  H73      1.0000 0.55735  0.68630  0.03056  Biso   1.000  H 
  H74      1.0000 0.59894  0.89997  0.00593  Biso   1.000  H 
  H75      1.0000 0.12894  0.44265  0.03056  Biso   1.000  H 
  H76      1.0000 0.93226  0.56662  0.67267  Biso   1.000  H 
  H77      1.0000 0.03233  0.26561  0.66071  Biso   1.000  H 
  H78      1.0000 0.98284  0.22910  0.67725  Biso   1.000  H 
  H79      1.0000 0.42040  0.31616  0.65614  Biso   1.000  H 
  H80      1.0000 0.89576  0.57960  0.65614  Biso   1.000  H 
  H81      1.0000 0.68384  0.10424  0.65614  Biso   1.000  H 
  H82      1.0000 0.57960  0.68384  0.34386  Biso   1.000  H 
  H83      1.0000 0.10424  0.42040  0.34386  Biso   1.000  H 
  H84      1.0000 0.31616  0.89576  0.34386  Biso   1.000  H 
  H85      1.0000 0.75374  0.98284  0.32275  Biso   1.000  H 
  H86      1.0000 0.43338  0.36564  0.67267  Biso   1.000  H 
  H87      1.0000 0.22910  0.24626  0.32275  Biso   1.000  H 
  H88      1.0000 0.91294  0.35051  0.01057  Biso   1.000  H 
  H89      1.0000 0.43757  0.08706  0.01057  Biso   1.000  H 
  H90      1.0000 0.64949  0.56243  0.01057  Biso   1.000  H 
  H91      1.0000 0.08706  0.64949  0.98943  Biso   1.000  H 
  H92      1.0000 0.56243  0.91294  0.98943  Biso   1.000  H 
  H93      1.0000 0.35051  0.43757  0.98943  Biso   1.000  H 
  H94      1.0000 0.23328  0.96767  0.66071  Biso   1.000  H 
  H95      1.0000 0.73439  0.76672  0.66071  Biso   1.000  H 
  H96      1.0000 0.01716  0.77090  0.32275  Biso   1.000  H 
  H97      1.0000 0.31370  0.87106  0.03056  Biso   1.000  H 
  H98      1.0000 0.77598  0.98038  0.63604  Biso   1.000  H 
  H99      1.0000 0.20440  0.22402  0.63604  Biso   1.000  H 
  H100     1.0000 0.30493  0.41675  0.35881  Biso   1.000  H 
  H101     1.0000 0.16171  0.98153  0.58533  Biso   1.000  H 
  H102     1.0000 0.81982  0.83829  0.58533  Biso   1.000  H 
  H103     1.0000 0.01847  0.18018  0.58533  Biso   1.000  H 
  H104     1.0000 0.50496  0.35179  0.74807  Biso   1.000  H 
  H105     1.0000 0.84682  0.49504  0.74807  Biso   1.000  H 
  H106     1.0000 0.64821  0.15318  0.74807  Biso   1.000  H 
  H107     1.0000 0.49504  0.64821  0.25193  Biso   1.000  H 
  H108     1.0000 0.58325  0.88818  0.35881  Biso   1.000  H 
  H109     1.0000 0.15318  0.50496  0.25193  Biso   1.000  H 
  H110     1.0000 0.83829  0.01847  0.41467  Biso   1.000  H 
  H111     1.0000 0.18018  0.16171  0.41467  Biso   1.000  H 
  H112     1.0000 0.98153  0.81982  0.41467  Biso   1.000  H 
  H113     1.0000 0.82837  0.31487  0.91869  Biso   1.000  H 
  H114     1.0000 0.48650  0.17163  0.91869  Biso   1.000  H 
  H115     1.0000 0.68513  0.51350  0.91869  Biso   1.000  H 
  H116     1.0000 0.17163  0.68513  0.08131  Biso   1.000  H 
  H117     1.0000 0.51350  0.82837  0.08131  Biso   1.000  H 
  H118     1.0000 0.35179  0.84682  0.25193  Biso   1.000  H 
  H119     1.0000 0.11182  0.69507  0.35881  Biso   1.000  H 
  H120     1.0000 0.41675  0.11182  0.64119  Biso   1.000  H 
  H121     1.0000 0.88818  0.30493  0.64119  Biso   1.000  H 
  H122     1.0000 0.01962  0.79560  0.63604  Biso   1.000  H 
  H123     1.0000 0.89068  0.35296  0.69729  Biso   1.000  H 
  H124     1.0000 0.46228  0.10932  0.69729  Biso   1.000  H 
  H125     1.0000 0.64704  0.53772  0.69729  Biso   1.000  H 
  H126     1.0000 0.10932  0.64704  0.30271  Biso   1.000  H 
  H127     1.0000 0.53772  0.89068  0.30271  Biso   1.000  H 
  H128     1.0000 0.35296  0.46228  0.30271  Biso   1.000  H 
  H129     1.0000 0.22151  0.97160  0.30782  Biso   1.000  H 
  H130     1.0000 0.75008  0.77849  0.30782  Biso   1.000  H 
  H131     1.0000 0.02840  0.24992  0.30782  Biso   1.000  H 
  H132     1.0000 0.44516  0.36173  0.02555  Biso   1.000  H 
  H133     1.0000 0.91657  0.55484  0.02555  Biso   1.000  H 
  H134     1.0000 0.63827  0.08343  0.02555  Biso   1.000  H 
  H135     1.0000 0.55484  0.63827  0.97445  Biso   1.000  H 
  H136     1.0000 0.08343  0.44516  0.97445  Biso   1.000  H 
  H137     1.0000 0.36173  0.91657  0.97445  Biso   1.000  H 
  H138     1.0000 0.77849  0.02840  0.69218  Biso   1.000  H 
  H139     1.0000 0.24992  0.22151  0.69218  Biso   1.000  H 
  H140     1.0000 0.97160  0.75008  0.69218  Biso   1.000  H 
  H141     1.0000 0.16176  0.93401  0.54415  Biso   1.000  H 
  H142     1.0000 0.76672  0.03233  0.33929  Biso   1.000  H 
  H143     1.0000 0.24626  0.01716  0.67725  Biso   1.000  H 
  H144     1.0000 0.63491  0.77286  0.84321  Biso   1.000  H 
  H145     1.0000 0.43949  0.47125  0.49006  Biso   1.000  H 
  H146     1.0000 0.03176  0.56051  0.49006  Biso   1.000  H 
  H147     1.0000 0.80460  0.69840  0.17678  Biso   1.000  H 
  H148     1.0000 0.89381  0.19540  0.17678  Biso   1.000  H 
  H149     1.0000 0.30160  0.10619  0.17678  Biso   1.000  H 
  H150     1.0000 0.86205  0.63491  0.15679  Biso   1.000  H 
  H151     1.0000 0.77286  0.13795  0.15679  Biso   1.000  H 
  H152     1.0000 0.36509  0.22714  0.15679  Biso   1.000  H 
  H153     1.0000 0.52875  0.96824  0.49006  Biso   1.000  H 
  H154     1.0000 0.13795  0.36509  0.84321  Biso   1.000  H 
  H155     1.0000 0.01302  0.45171  0.83023  Biso   1.000  H 
  H156     1.0000 0.77090  0.75374  0.67725  Biso   1.000  H 
  H157     1.0000 0.83329  0.18957  0.34557  Biso   1.000  H 
  H158     1.0000 0.35628  0.16671  0.34557  Biso   1.000  H 
  H159     1.0000 0.81043  0.64372  0.34557  Biso   1.000  H 
  H160     1.0000 0.83336  0.14378  0.98808  Biso   1.000  H 
  H161     1.0000 0.31043  0.16664  0.98808  Biso   1.000  H 
  H162     1.0000 0.85622  0.68957  0.98808  Biso   1.000  H 
  H163     1.0000 0.22714  0.86205  0.84321  Biso   1.000  H 
  H164     1.0000 0.96824  0.43949  0.50994  Biso   1.000  H 
  H165     1.0000 0.56051  0.52875  0.50994  Biso   1.000  H 
  H166     1.0000 0.47125  0.03176  0.50994  Biso   1.000  H 
  H167     1.0000 0.54829  0.56132  0.83023  Biso   1.000  H 
  H168     1.0000 0.65365  0.88163  0.50292  Biso   1.000  H 
  H169     1.0000 0.22799  0.34635  0.50292  Biso   1.000  H 
  H170     1.0000 0.11837  0.77201  0.50292  Biso   1.000  H 
  H171     1.0000 0.34635  0.11837  0.49708  Biso   1.000  H 
  H172     1.0000 0.77202  0.65365  0.49708  Biso   1.000  H 
  H173     1.0000 0.88163  0.22799  0.49708  Biso   1.000  H 
  H174     1.0000 0.98698  0.54829  0.16977  Biso   1.000  H 
  H175     1.0000 0.56132  0.01302  0.16977  Biso   1.000  H 
  H176     1.0000 0.45171  0.43868  0.16977  Biso   1.000  H 
  H177     1.0000 0.67968  0.78502  0.16354  Biso   1.000  H 
  H178     1.0000 0.10534  0.32032  0.16354  Biso   1.000  H 
  H179     1.0000 0.21498  0.89466  0.16354  Biso   1.000  H 
  H180     1.0000 0.32032  0.21498  0.83646  Biso   1.000  H 
  H181     1.0000 0.89466  0.67968  0.83646  Biso   1.000  H 
  H182     1.0000 0.78502  0.10534  0.83646  Biso   1.000  H 
  H183     1.0000 0.19540  0.30160  0.82322  Biso   1.000  H 
  H184     1.0000 0.10619  0.80460  0.82322  Biso   1.000  H 
  H185     1.0000 0.69840  0.89381  0.82322  Biso   1.000  H 
  H186     1.0000 0.16664  0.85622  0.01192  Biso   1.000  H 
  H187     1.0000 0.68957  0.83336  0.01192  Biso   1.000  H 
  H188     1.0000 0.43868  0.98698  0.83023  Biso   1.000  H 
  H189     1.0000 0.16671  0.81043  0.65443  Biso   1.000  H 
  H190     1.0000 0.14378  0.31043  0.01192  Biso   1.000  H 
  H191     1.0000 0.97706  0.49994  0.32129  Biso   1.000  H 
  H192     1.0000 0.50006  0.47712  0.32129  Biso   1.000  H 
  H193     1.0000 0.47712  0.97706  0.67871  Biso   1.000  H 
  H194     1.0000 0.52288  0.02294  0.32129  Biso   1.000  H 
  H195     1.0000 0.49994  0.52288  0.67871  Biso   1.000  H 
  H196     1.0000 0.18957  0.35628  0.65443  Biso   1.000  H 
  H197     1.0000 0.64372  0.83329  0.65443  Biso   1.000  H 
  H198     1.0000 0.02294  0.50006  0.67871  Biso   1.000  H 
  Mg1      1.0000 0.29846  0.30760  0.52720  Biso   1.000  Mg
  Mg2      1.0000 0.96512  0.64094  0.86059  Biso   1.000  Mg
  Mg3      1.0000 0.67582  0.03488  0.86059  Biso   1.000  Mg
  Mg4      1.0000 0.35906  0.32418  0.86059  Biso   1.000  Mg
  Mg5      1.0000 0.70154  0.69240  0.47280  Biso   1.000  Mg
  Mg6      1.0000 0.99085  0.29846  0.47280  Biso   1.000  Mg
  Mg7      1.0000 0.30761  0.00915  0.47280  Biso   1.000  Mg
  Mg8      1.0000 0.00915  0.70154  0.52720  Biso   1.000  Mg
  Mg9      1.0000 0.03488  0.35906  0.13941  Biso   1.000  Mg
  Mg10     1.0000 0.32418  0.96512  0.13941  Biso   1.000  Mg
  Mg11     1.0000 0.64094  0.67582  0.13941  Biso   1.000  Mg
  Mg12     1.0000 0.63180  0.97428  0.19390  Biso   1.000  Mg
  Mg13     1.0000 0.34248  0.36820  0.19390  Biso   1.000  Mg
  Mg14     1.0000 0.02572  0.65752  0.19390  Biso   1.000  Mg
  Mg15     1.0000 0.36820  0.02572  0.80610  Biso   1.000  Mg
  Mg16     1.0000 0.65752  0.63180  0.80610  Biso   1.000  Mg
  Mg17     1.0000 0.69239  0.99085  0.52720  Biso   1.000  Mg
  Mg18     1.0000 0.97428  0.34248  0.80610  Biso   1.000  Mg
  N1       1.0000 0.95429  0.81467  0.68512  Biso   1.000  N 
  N2       1.0000 0.80628  0.28762  0.64827  Biso   1.000  N 
  N3       1.0000 0.48134  0.19372  0.64827  Biso   1.000  N 
  N4       1.0000 0.28762  0.48134  0.35173  Biso   1.000  N 
  N5       1.0000 0.19372  0.71238  0.35173  Biso   1.000  N 
  N6       1.0000 0.51866  0.80628  0.35173  Biso   1.000  N 
  N7       1.0000 0.71238  0.51866  0.64827  Biso   1.000  N 
  N8       1.0000 0.24481  0.99503  0.58316  Biso   1.000  N 
  N9       1.0000 0.47294  0.62097  0.98149  Biso   1.000  N 
  N10      1.0000 0.86039  0.04571  0.68512  Biso   1.000  N 
  N11      1.0000 0.32838  0.41689  0.08351  Biso   1.000  N 
  N12      1.0000 0.58311  0.91149  0.08351  Biso   1.000  N 
  N13      1.0000 0.08851  0.67162  0.08351  Biso   1.000  N 
  N14      1.0000 0.67162  0.58311  0.91649  Biso   1.000  N 
  N15      1.0000 0.41689  0.08851  0.91649  Biso   1.000  N 
  N16      1.0000 0.91149  0.32838  0.91649  Biso   1.000  N 
  N17      1.0000 0.99503  0.75022  0.41684  Biso   1.000  N 
  N18      1.0000 0.24978  0.24481  0.41684  Biso   1.000  N 
  N19      1.0000 0.75519  0.00497  0.41684  Biso   1.000  N 
  N20      1.0000 0.33829  0.91644  0.24977  Biso   1.000  N 
  N21      1.0000 0.08356  0.42186  0.24977  Biso   1.000  N 
  N22      1.0000 0.18533  0.13961  0.68512  Biso   1.000  N 
  N23      1.0000 0.57814  0.66171  0.24977  Biso   1.000  N 
  N24      1.0000 0.91644  0.57814  0.75023  Biso   1.000  N 
  N25      1.0000 0.42186  0.33829  0.75023  Biso   1.000  N 
  N26      1.0000 0.00497  0.24978  0.58316  Biso   1.000  N 
  N27      1.0000 0.13961  0.95429  0.31488  Biso   1.000  N 
  N28      1.0000 0.81467  0.86039  0.31488  Biso   1.000  N 
  N29      1.0000 0.04571  0.18533  0.31488  Biso   1.000  N 
  N30      1.0000 0.52706  0.37903  0.01851  Biso   1.000  N 
  N31      1.0000 0.85197  0.47294  0.01851  Biso   1.000  N 
  N32      1.0000 0.62097  0.14803  0.01851  Biso   1.000  N 
  N33      1.0000 0.14803  0.52706  0.98149  Biso   1.000  N 
  N34      1.0000 0.37903  0.85197  0.98149  Biso   1.000  N 
  N35      1.0000 0.66171  0.08356  0.75023  Biso   1.000  N 
  N36      1.0000 0.75022  0.75519  0.58316  Biso   1.000  N 
  O1       1.0000 0.95572  0.25935  0.25478  Biso   1.000  O 
  O2       1.0000 0.28901  0.92601  0.92138  Biso   1.000  O 
  O3       1.0000 0.98890  0.34951  0.34709  Biso   1.000  O 
  O4       1.0000 0.65050  0.63939  0.34709  Biso   1.000  O 
  O5       1.0000 0.36061  0.01110  0.34709  Biso   1.000  O 
  O6       1.0000 0.67778  0.98382  0.98619  Biso   1.000  O 
  O7       1.0000 0.01618  0.69396  0.98619  Biso   1.000  O 
  O8       1.0000 0.34109  0.05549  0.66578  Biso   1.000  O 
  O9       1.0000 0.94451  0.28560  0.66578  Biso   1.000  O 
  O10      1.0000 0.71440  0.65891  0.66578  Biso   1.000  O 
  O11      1.0000 0.65891  0.94451  0.33422  Biso   1.000  O 
  O12      1.0000 0.05549  0.71440  0.33422  Biso   1.000  O 
  O13      1.0000 0.28560  0.34109  0.33422  Biso   1.000  O 
  O14      1.0000 0.00778  0.38883  0.99897  Biso   1.000  O 
  O15      1.0000 0.61117  0.61895  0.99897  Biso   1.000  O 
  O16      1.0000 0.38105  0.99222  0.99897  Biso   1.000  O 
  O17      1.0000 0.32557  0.27784  0.66765  Biso   1.000  O 
  O18      1.0000 0.72216  0.04773  0.66765  Biso   1.000  O 
  O19      1.0000 0.95227  0.67442  0.66765  Biso   1.000  O 
  O20      1.0000 0.67443  0.72216  0.33235  Biso   1.000  O 
  O21      1.0000 0.27784  0.95227  0.33235  Biso   1.000  O 
  O22      1.0000 0.04773  0.32558  0.33235  Biso   1.000  O 
  O23      1.0000 0.99222  0.61117  0.00103  Biso   1.000  O 
  O24      1.0000 0.38883  0.38105  0.00103  Biso   1.000  O 
  O25      1.0000 0.61895  0.00778  0.00103  Biso   1.000  O 
  O26      1.0000 0.63939  0.98890  0.65291  Biso   1.000  O 
  O27      1.0000 0.63700  0.71099  0.92138  Biso   1.000  O 
  O28      1.0000 0.34950  0.36061  0.65291  Biso   1.000  O 
  O29      1.0000 0.69396  0.67778  0.01381  Biso   1.000  O 
  O30      1.0000 0.07399  0.36300  0.92138  Biso   1.000  O 
  O31      1.0000 0.36300  0.28901  0.07862  Biso   1.000  O 
  O32      1.0000 0.71099  0.07399  0.07862  Biso   1.000  O 
  O33      1.0000 0.92601  0.63700  0.07862  Biso   1.000  O 
  O34      1.0000 0.30363  0.04428  0.25477  Biso   1.000  O 
  O35      1.0000 0.74065  0.69637  0.25478  Biso   1.000  O 
  O36      1.0000 0.02966  0.62236  0.41201  Biso   1.000  O 
  O37      1.0000 0.37764  0.40730  0.41201  Biso   1.000  O 
  O38      1.0000 0.59270  0.97034  0.41201  Biso   1.000  O 
  O39      1.0000 0.97034  0.37764  0.58799  Biso   1.000  O 
  O40      1.0000 0.62236  0.59270  0.58799  Biso   1.000  O 
  O41      1.0000 0.40730  0.02966  0.58799  Biso   1.000  O 
  O42      1.0000 0.69637  0.95572  0.74523  Biso   1.000  O 
  O43      1.0000 0.04428  0.74065  0.74522  Biso   1.000  O 
  O44      1.0000 0.25935  0.30363  0.74522  Biso   1.000  O 
  O45      1.0000 0.65556  0.68285  0.68047  Biso   1.000  O 
  O46      1.0000 0.31715  0.97271  0.68047  Biso   1.000  O 
  O47      1.0000 0.02729  0.34444  0.68047  Biso   1.000  O 
  O48      1.0000 0.34444  0.31715  0.31953  Biso   1.000  O 
  O49      1.0000 0.68285  0.02729  0.31953  Biso   1.000  O 
  O50      1.0000 0.97271  0.65556  0.31953  Biso   1.000  O 
  O51      1.0000 0.32222  0.01618  0.01381  Biso   1.000  O 
  O52      1.0000 0.98382  0.30604  0.01381  Biso   1.000  O 
  O53      1.0000 0.01110  0.65049  0.65291  Biso   1.000  O 
  O54      1.0000 0.30604  0.32222  0.98619  Biso   1.000  O 
