# generated using pymatgen
data_AlH12C22O5
_symmetry_space_group_name_H-M   'P 1'
_cell_length_a   6.61080000
_cell_length_b   14.97834928
_cell_length_c   16.17360000
_cell_angle_alpha   89.99997793
_cell_angle_beta   89.99990000
_cell_angle_gamma   77.33722559
_symmetry_Int_Tables_number   1
_chemical_formula_structural   AlH12C22O5
_chemical_formula_sum   'Al2 H24 C44 O10'
_cell_volume   1562.53881710
_cell_formula_units_Z   2
loop_
 _symmetry_equiv_pos_site_id
 _symmetry_equiv_pos_as_xyz
  1  'x, y, z'
loop_
 _atom_site_type_symbol
 _atom_site_label
 _atom_site_symmetry_multiplicity
 _atom_site_fract_x
 _atom_site_fract_y
 _atom_site_fract_z
 _atom_site_occupancy
  Al  Al1  1  0.99998500  0.50010000  0.00000000  1.0
  Al  Al3  1  0.49999000  0.50010000  1.00000000  1.0
  C  C5  1  0.62996500  0.75287000  0.65398500  1.0
  C  C6  1  0.55118500  0.90236000  0.57661000  1.0
  C  C7  1  0.60636500  0.80558000  0.57555500  1.0
  C  C8  1  0.52458000  0.95340000  0.65215000  1.0
  C  C9  1  0.69786000  0.60435000  0.88334000  1.0
  C  C15  1  0.36982500  0.24731000  0.65398000  1.0
  C  C16  1  0.69785500  0.60435000  0.11666000  1.0
  C  C17  1  0.47544500  0.04679000  0.65214500  1.0
  C  C18  1  0.30213500  0.39586000  0.88333000  1.0
  C  C20  1  0.44874000  0.09784000  0.57660500  1.0
  C  C21  1  0.39337000  0.19463000  0.57555500  1.0
  C  C24  1  0.52558000  0.95124000  0.50000000  1.0
  C  C27  1  0.52458000  0.95340000  0.34785000  1.0
  C  C28  1  0.55118500  0.90236000  0.42339000  1.0
  C  C29  1  0.36286000  0.24092000  0.50000000  1.0
  C  C30  1  0.47436000  0.04896000  0.50000000  1.0
  C  C34  1  0.36982500  0.24731000  0.34602000  1.0
  C  C35  1  0.44873000  0.09784000  0.42339500  1.0
  C  C36  1  0.39336500  0.19463000  0.42444500  1.0
  C  C37  1  0.63682000  0.75928000  0.50000000  1.0
  C  C38  1  0.47544500  0.04679000  0.34785500  1.0
  C  C39  1  0.60636500  0.80558000  0.42444500  1.0
  C  C40  1  0.30213000  0.39586000  0.11667000  1.0
  C  C45  1  0.62996500  0.75287000  0.34601500  1.0
  C  C52  1  0.67330000  0.65602000  0.80395000  1.0
  C  C54  1  0.82654000  0.70688000  0.68159000  1.0
  C  C55  1  0.47594000  0.69964000  0.22432000  1.0
  C  C56  1  0.45509500  0.74873000  0.29798500  1.0
  C  C57  1  0.47594000  0.69964000  0.77568000  1.0
  C  C58  1  0.82653500  0.70689000  0.31841000  1.0
  C  C59  1  0.84856500  0.66001000  0.24345500  1.0
  C  C63  1  0.45510500  0.74873000  0.70201500  1.0
  C  C65  1  0.67330000  0.65602000  0.19605000  1.0
  C  C67  1  0.32659500  0.34421000  0.19606000  1.0
  C  C68  1  0.84855500  0.66001000  0.75654500  1.0
  C  C73  1  0.32660500  0.34421000  0.80394000  1.0
  C  C74  1  0.15132500  0.34022000  0.24345000  1.0
  C  C76  1  0.15133000  0.34022000  0.75655000  1.0
  C  C77  1  0.54475500  0.25147000  0.70200500  1.0
  C  C78  1  0.17328000  0.29335000  0.31840000  1.0
  C  C79  1  0.52393500  0.30057000  0.77567500  1.0
  C  C80  1  0.17328000  0.29335000  0.68160000  1.0
  C  C89  1  0.52393500  0.30057000  0.22432500  1.0
  C  C90  1  0.54476500  0.25147000  0.29799500  1.0
  H  H93  1  0.67826000  0.68468000  0.50000000  1.0
  H  H94  1  0.99898000  0.37460000  0.77932500  1.0
  H  H95  1  0.65918000  0.30522000  0.18743000  1.0
  H  H97  1  0.99898000  0.37460000  0.22067500  1.0
  H  H98  1  0.03700000  0.29077000  0.35562500  1.0
  H  H99  1  0.00092000  0.62562000  0.22070500  1.0
  H  H100  1  0.69771500  0.21583000  0.68062000  1.0
  H  H102  1  0.96281500  0.70948000  0.35565500  1.0
  H  H103  1  0.34071500  0.69495000  0.81255000  1.0
  H  H104  1  0.30209500  0.78435000  0.31934000  1.0
  H  H105  1  0.30209500  0.78435000  0.68066000  1.0
  H  H106  1  0.00093000  0.62562000  0.77929500  1.0
  H  H109  1  0.96281000  0.70948000  0.64434500  1.0
  H  H111  1  0.65917500  0.30522000  0.81256500  1.0
  H  H112  1  0.34071500  0.69495000  0.18745000  1.0
  H  H115  1  0.03699500  0.29077000  0.64437500  1.0
  H  H123  1  0.69772000  0.21583000  0.31938000  1.0
  H  H126  1  0.32128000  0.31552000  0.50000000  1.0
  H  H127  1  0.18951500  0.62142000  0.00000000  1.0
  H  H128  1  0.81037500  0.37880000  1.00000000  1.0
  H  H130  1  0.45500500  0.08393000  0.71055500  1.0
  H  H134  1  0.54513500  0.91625000  0.71053500  1.0
  H  H135  1  0.54514000  0.91625000  0.28946500  1.0
  H  H137  1  0.45500500  0.08393000  0.28944500  1.0
  O  O141  1  0.46390500  0.41545000  0.08538000  1.0
  O  O143  1  0.53612500  0.58476000  0.08537500  1.0
  O  O144  1  0.12063000  0.41676000  0.91422000  1.0
  O  O145  1  0.87938000  0.58344000  0.91422000  1.0
  O  O147  1  0.87938000  0.58344000  0.08578000  1.0
  O  O150  1  0.22245000  0.55556000  0.00000000  1.0
  O  O151  1  0.12062000  0.41676000  0.08578000  1.0
  O  O152  1  0.46390500  0.41545000  0.91462000  1.0
  O  O154  1  0.53612000  0.58476000  0.91463000  1.0
  O  O157  1  0.77755000  0.44462000  0.00000000  1.0
