# generated using pymatgen
data_CuH6C6(N2O)4
_symmetry_space_group_name_H-M   'P 1'
_cell_length_a   5.09290000
_cell_length_b   16.52062527
_cell_length_c   16.52414428
_cell_angle_alpha   88.61757874
_cell_angle_beta   81.13511853
_cell_angle_gamma   81.13321503
_symmetry_Int_Tables_number   1
_chemical_formula_structural   CuH6C6(N2O)4
_chemical_formula_sum   'Cu4 H24 C24 N32 O16'
_cell_volume   1357.28213538
_cell_formula_units_Z   4
loop_
 _symmetry_equiv_pos_site_id
 _symmetry_equiv_pos_as_xyz
  1  'x, y, z'
loop_
 _atom_site_type_symbol
 _atom_site_label
 _atom_site_symmetry_multiplicity
 _atom_site_fract_x
 _atom_site_fract_y
 _atom_site_fract_z
 _atom_site_occupancy
  C  C1  1  0.31551000  0.65643000  0.46871000  1.0
  C  C2  1  0.68449000  0.34357000  0.53129000  1.0
  C  C3  1  0.68097000  0.15495000  0.53703000  1.0
  C  C5  1  0.16411000  0.46301000  0.65497000  1.0
  C  C6  1  0.80274000  0.45912000  0.77612000  1.0
  C  C7  1  0.97218000  0.46878000  0.84354000  1.0
  C  C11  1  0.28209000  0.03699000  0.84503000  1.0
  C  C12  1  0.03798000  0.04088000  0.72388000  1.0
  C  C13  1  0.28450000  0.03122000  0.65646000  1.0
  C  C17  1  0.92138000  0.27611000  0.54093000  1.0
  C  C19  1  0.55935000  0.15643000  0.96871000  1.0
  C  C20  1  0.73842000  0.22389000  0.95907000  1.0
  C  C21  1  0.83587000  0.53699000  0.34503000  1.0
  C  C22  1  0.19726000  0.54088000  0.22388000  1.0
  C  C23  1  0.02781000  0.53122000  0.15646000  1.0
  C  C27  1  0.71789000  0.96301000  0.15497000  1.0
  C  C28  1  0.62704000  0.65495000  0.03703000  1.0
  C  C29  1  0.96202000  0.95912000  0.27612000  1.0
  C  C32  1  0.71549000  0.96878000  0.34354000  1.0
  C  C33  1  0.37295000  0.34505000  0.96297000  1.0
  C  C38  1  0.26158000  0.77611000  0.04093000  1.0
  C  C40  1  0.07862000  0.72389000  0.45907000  1.0
  C  C42  1  0.31902000  0.84505000  0.46297000  1.0
  C  C47  1  0.44065000  0.84357000  0.03129000  1.0
  Cu  Cu49  1  1.00000000  0.50000000  0.00000000  1.0
  Cu  Cu50  1  0.50000000  1.00000000  0.50000000  1.0
  Cu  Cu51  1  0.50000000  0.50000000  0.50000000  1.0
  Cu  Cu53  1  0.50000000  0.00000000  0.00000000  1.0
  H  H57  1  0.04910000  0.73009000  0.39455000  1.0
  H  H58  1  0.90389000  0.20691000  0.99467000  1.0
  H  H59  1  0.82626000  0.23009000  0.89455000  1.0
  H  H60  1  0.89453000  0.70691000  0.49467000  1.0
  H  H61  1  0.47867000  0.83041000  0.41205000  1.0
  H  H62  1  0.30910000  0.41205000  0.66963000  1.0
  H  H63  1  0.52132000  0.16959000  0.58795000  1.0
  H  H64  1  0.10547000  0.29309000  0.50533000  1.0
  H  H65  1  0.95090000  0.26991000  0.60545000  1.0
  H  H66  1  0.27886000  0.33041000  0.91205000  1.0
  H  H69  1  0.05607000  0.89462000  0.27000000  1.0
  H  H71  1  0.69090000  0.58795000  0.33037000  1.0
  H  H72  1  0.39844000  0.50525000  0.20693000  1.0
  H  H73  1  0.22069000  0.60538000  0.23000000  1.0
  H  H80  1  0.11062000  0.99475000  0.29307000  1.0
  H  H82  1  0.60922000  0.91205000  0.16963000  1.0
  H  H84  1  0.60157000  0.49475000  0.79307000  1.0
  H  H88  1  0.77931000  0.39462000  0.77000000  1.0
  H  H90  1  0.88939000  0.00525000  0.70693000  1.0
  H  H91  1  0.94393000  0.10538000  0.73000000  1.0
  H  H92  1  0.39078000  0.08795000  0.83037000  1.0
  H  H93  1  0.09611000  0.79309000  0.00533000  1.0
  H  H99  1  0.72113000  0.66959000  0.08795000  1.0
  H  H100  1  0.17374000  0.76991000  0.10545000  1.0
  N  N105  1  0.02874000  0.43055000  0.40377000  1.0
  N  N106  1  0.06749000  0.90372000  0.56940000  1.0
  N  N107  1  0.88961500  0.98895500  0.19833500  1.0
  N  N108  1  0.28747000  0.90914000  0.51196000  1.0
  N  N109  1  0.36182000  0.66100000  0.94388000  1.0
  N  N110  1  0.54061000  0.59628000  0.93060000  1.0
  N  N111  1  0.70054000  0.01199000  0.09083000  1.0
  N  N112  1  0.97702000  0.05618000  0.16096000  1.0
  N  N114  1  0.11038500  0.01104500  0.80166500  1.0
  N  N116  1  0.02297000  0.94382000  0.83904000  1.0
  N  N117  1  0.29143000  0.40914000  0.01196000  1.0
  N  N118  1  0.86306000  0.06945000  0.09623000  1.0
  N  N119  1  0.70857000  0.59086000  0.98804000  1.0
  N  N121  1  0.19416000  0.44382000  0.33904000  1.0
  N  N122  1  0.12130000  0.80168000  0.48890000  1.0
  N  N123  1  0.07690500  0.51104500  0.30166500  1.0
  N  N125  1  0.80336000  0.48801000  0.40917000  1.0
  N  N130  1  0.13694000  0.93055000  0.90377000  1.0
  N  N132  1  0.45939000  0.40372000  0.06940000  1.0
  N  N134  1  0.96670000  0.83900000  0.55612000  1.0
  N  N135  1  0.29947000  0.98801000  0.90917000  1.0
  N  N138  1  0.63818000  0.33900000  0.05612000  1.0
  N  N139  1  0.92309000  0.48896000  0.69834000  1.0
  N  N142  1  0.93251000  0.09628000  0.43060000  1.0
  N  N143  1  0.87869000  0.19832000  0.51110000  1.0
  N  N145  1  0.03330000  0.16100000  0.44388000  1.0
  N  N148  1  0.71253000  0.09086000  0.48804000  1.0
  N  N149  1  0.97126000  0.56945000  0.59623000  1.0
  N  N150  1  0.19665000  0.51199000  0.59083000  1.0
  N  N151  1  0.41188000  0.69832000  0.01110000  1.0
  N  N153  1  0.58811000  0.30168000  0.98890000  1.0
  N  N154  1  0.80583000  0.55618000  0.66096000  1.0
  O  O169  1  0.70795000  0.41348000  0.56098000  1.0
  O  O170  1  0.49738500  0.32900500  0.49670500  1.0
  O  O171  1  0.12134000  0.56089000  0.08655000  1.0
  O  O172  1  0.67691000  0.82900000  0.99670000  1.0
  O  O173  1  0.17394000  0.50333000  0.82895000  1.0
  O  O174  1  0.23122000  0.06089000  0.58655000  1.0
  O  O175  1  0.87866000  0.43911000  0.91345000  1.0
  O  O176  1  0.82606000  0.49667000  0.17105000  1.0
  O  O177  1  0.29205000  0.58652000  0.43902000  1.0
  O  O179  1  0.32309000  0.17100000  0.00330000  1.0
  O  O183  1  0.31759000  0.91348000  0.06098000  1.0
  O  O184  1  0.76878000  0.93911000  0.41345000  1.0
  O  O185  1  0.68241000  0.08652000  0.93902000  1.0
  O  O187  1  0.49378000  0.00333000  0.32895000  1.0
  O  O194  1  0.50261000  0.67100000  0.50330000  1.0
  O  O197  1  0.50622000  0.99667000  0.67105000  1.0
