# generated using pymatgen
data_CuH2(C3O2)2
_symmetry_space_group_name_H-M   'P 1'
_cell_length_a   18.62731394
_cell_length_b   18.62731394
_cell_length_c   18.62731394
_cell_angle_alpha   60.00000000
_cell_angle_beta   60.00000000
_cell_angle_gamma   60.00000000
_symmetry_Int_Tables_number   1
_chemical_formula_structural   CuH2(C3O2)2
_chemical_formula_sum   'Cu12 H24 C72 O48'
_cell_volume   4570.20524390
_cell_formula_units_Z   12
loop_
 _symmetry_equiv_pos_site_id
 _symmetry_equiv_pos_as_xyz
  1  'x, y, z'
loop_
 _atom_site_type_symbol
 _atom_site_label
 _atom_site_symmetry_multiplicity
 _atom_site_fract_x
 _atom_site_fract_y
 _atom_site_fract_z
 _atom_site_occupancy
  C  C1  1  0.43130000  0.97510000  0.16230000  1
  C  C1  1  0.43130000  0.16230000  0.97510000  1
  C  C1  1  0.16230000  0.43130000  0.43130000  1
  C  C1  1  0.97510000  0.43130000  0.43130000  1
  C  C1  1  0.97510000  0.16230000  0.43130000  1
  C  C1  1  0.16230000  0.97510000  0.43130000  1
  C  C1  1  0.43130000  0.43130000  0.16230000  1
  C  C1  1  0.43130000  0.43130000  0.97510000  1
  C  C1  1  0.16230000  0.43130000  0.97510000  1
  C  C1  1  0.97510000  0.43130000  0.16230000  1
  C  C1  1  0.43130000  0.16230000  0.43130000  1
  C  C1  1  0.43130000  0.97510000  0.43130000  1
  C  C1  1  0.56870000  0.02490000  0.83770000  1
  C  C1  1  0.56870000  0.83770000  0.02490000  1
  C  C1  1  0.02490000  0.56870000  0.56870000  1
  C  C1  1  0.83770000  0.56870000  0.56870000  1
  C  C1  1  0.56870000  0.83770000  0.56870000  1
  C  C1  1  0.56870000  0.02490000  0.56870000  1
  C  C1  1  0.02490000  0.56870000  0.83770000  1
  C  C1  1  0.83770000  0.56870000  0.02490000  1
  C  C1  1  0.56870000  0.56870000  0.02490000  1
  C  C1  1  0.56870000  0.56870000  0.83770000  1
  C  C1  1  0.02490000  0.83770000  0.56870000  1
  C  C1  1  0.83770000  0.02490000  0.56870000  1
  C  C2  1  0.38700000  0.96900000  0.25700000  1
  C  C2  1  0.38700000  0.25700000  0.96900000  1
  C  C2  1  0.25700000  0.38700000  0.38700000  1
  C  C2  1  0.96900000  0.38700000  0.38700000  1
  C  C2  1  0.96900000  0.25700000  0.38700000  1
  C  C2  1  0.25700000  0.96900000  0.38700000  1
  C  C2  1  0.38700000  0.38700000  0.25700000  1
  C  C2  1  0.38700000  0.38700000  0.96900000  1
  C  C2  1  0.25700000  0.38700000  0.96900000  1
  C  C2  1  0.96900000  0.38700000  0.25700000  1
  C  C2  1  0.38700000  0.25700000  0.38700000  1
  C  C2  1  0.38700000  0.96900000  0.38700000  1
  C  C2  1  0.61300000  0.03100000  0.74300000  1
  C  C2  1  0.61300000  0.74300000  0.03100000  1
  C  C2  1  0.03100000  0.61300000  0.61300000  1
  C  C2  1  0.74300000  0.61300000  0.61300000  1
  C  C2  1  0.61300000  0.74300000  0.61300000  1
  C  C2  1  0.61300000  0.03100000  0.61300000  1
  C  C2  1  0.03100000  0.61300000  0.74300000  1
  C  C2  1  0.74300000  0.61300000  0.03100000  1
  C  C2  1  0.61300000  0.61300000  0.03100000  1
  C  C2  1  0.61300000  0.61300000  0.74300000  1
  C  C2  1  0.03100000  0.74300000  0.61300000  1
  C  C2  1  0.74300000  0.03100000  0.61300000  1
  C  C3  1  0.30060000  0.96840000  0.30060000  1
  C  C3  1  0.43040000  0.30060000  0.96840000  1
  C  C3  1  0.30060000  0.43040000  0.30060000  1
  C  C3  1  0.96840000  0.30060000  0.43040000  1
  C  C3  1  0.96840000  0.30060000  0.30060000  1
  C  C3  1  0.30060000  0.96840000  0.43040000  1
  C  C3  1  0.43040000  0.30060000  0.30060000  1
  C  C3  1  0.30060000  0.43040000  0.96840000  1
  C  C3  1  0.30060000  0.30060000  0.96840000  1
  C  C3  1  0.96840000  0.43040000  0.30060000  1
  C  C3  1  0.30060000  0.30060000  0.43040000  1
  C  C3  1  0.43040000  0.96840000  0.30060000  1
  C  C3  1  0.56960000  0.03160000  0.69940000  1
  C  C3  1  0.69940000  0.69940000  0.03160000  1
  C  C3  1  0.03160000  0.56960000  0.69940000  1
  C  C3  1  0.69940000  0.69940000  0.56960000  1
  C  C3  1  0.56960000  0.69940000  0.69940000  1
  C  C3  1  0.69940000  0.03160000  0.56960000  1
  C  C3  1  0.03160000  0.69940000  0.69940000  1
  C  C3  1  0.69940000  0.56960000  0.03160000  1
  C  C3  1  0.56960000  0.69940000  0.03160000  1
  C  C3  1  0.69940000  0.56960000  0.69940000  1
  C  C3  1  0.03160000  0.69940000  0.56960000  1
  C  C3  1  0.69940000  0.03160000  0.69940000  1
  Cu  Cu1  1  0.42940000  0.00000000  1.00000000  1
  Cu  Cu1  1  0.57060000  0.00000000  0.00000000  1
  Cu  Cu1  1  0.00000000  0.57060000  0.42940000  1
  Cu  Cu1  1  0.00000000  0.42940000  0.57060000  1
  Cu  Cu1  1  1.00000000  0.00000000  0.42940000  1
  Cu  Cu1  1  1.00000000  0.00000000  0.57060000  1
  Cu  Cu1  1  0.57060000  0.42940000  1.00000000  1
  Cu  Cu1  1  0.42940000  0.57060000  1.00000000  1
  Cu  Cu1  1  1.00000000  0.42940000  0.00000000  1
  Cu  Cu1  1  1.00000000  0.57060000  0.00000000  1
  Cu  Cu1  1  0.42940000  1.00000000  0.57060000  1
  Cu  Cu1  1  0.57060000  1.00000000  0.42940000  1
  H  H1  1  0.27200000  0.96760000  0.27200000  1
  H  H1  1  0.48840000  0.27200000  0.96760000  1
  H  H1  1  0.27200000  0.48840000  0.27200000  1
  H  H1  1  0.96760000  0.27200000  0.48840000  1
  H  H1  1  0.96760000  0.27200000  0.27200000  1
  H  H1  1  0.27200000  0.96760000  0.48840000  1
  H  H1  1  0.48840000  0.27200000  0.27200000  1
  H  H1  1  0.27200000  0.48840000  0.96760000  1
  H  H1  1  0.27200000  0.27200000  0.96760000  1
  H  H1  1  0.96760000  0.48840000  0.27200000  1
  H  H1  1  0.27200000  0.27200000  0.48840000  1
  H  H1  1  0.48840000  0.96760000  0.27200000  1
  H  H1  1  0.51160000  0.03240000  0.72800000  1
  H  H1  1  0.72800000  0.72800000  0.03240000  1
  H  H1  1  0.03240000  0.51160000  0.72800000  1
  H  H1  1  0.72800000  0.72800000  0.51160000  1
  H  H1  1  0.51160000  0.72800000  0.72800000  1
  H  H1  1  0.72800000  0.03240000  0.51160000  1
  H  H1  1  0.03240000  0.72800000  0.72800000  1
  H  H1  1  0.72800000  0.51160000  0.03240000  1
  H  H1  1  0.51160000  0.72800000  0.03240000  1
  H  H1  1  0.72800000  0.51160000  0.72800000  1
  H  H1  1  0.03240000  0.72800000  0.51160000  1
  H  H1  1  0.72800000  0.03240000  0.72800000  1
  O  O1  1  0.38810000  0.97870000  0.12570000  1
  O  O1  1  0.50750000  0.12570000  0.97870000  1
  O  O1  1  0.12570000  0.50750000  0.38810000  1
  O  O1  1  0.97870000  0.38810000  0.50750000  1
  O  O1  1  0.97870000  0.12570000  0.38810000  1
  O  O1  1  0.12570000  0.97870000  0.50750000  1
  O  O1  1  0.50750000  0.38810000  0.12570000  1
  O  O1  1  0.38810000  0.50750000  0.97870000  1
  O  O1  1  0.12570000  0.38810000  0.97870000  1
  O  O1  1  0.97870000  0.50750000  0.12570000  1
  O  O1  1  0.38810000  0.12570000  0.50750000  1
  O  O1  1  0.50750000  0.97870000  0.38810000  1
  O  O1  1  0.49250000  0.02130000  0.87430000  1
  O  O1  1  0.61190000  0.87430000  0.02130000  1
  O  O1  1  0.02130000  0.49250000  0.61190000  1
  O  O1  1  0.87430000  0.61190000  0.49250000  1
  O  O1  1  0.49250000  0.87430000  0.61190000  1
  O  O1  1  0.61190000  0.02130000  0.49250000  1
  O  O1  1  0.02130000  0.61190000  0.87430000  1
  O  O1  1  0.87430000  0.49250000  0.02130000  1
  O  O1  1  0.49250000  0.61190000  0.02130000  1
  O  O1  1  0.61190000  0.49250000  0.87430000  1
  O  O1  1  0.02130000  0.87430000  0.49250000  1
  O  O1  1  0.87430000  0.02130000  0.61190000  1
  O  O1  1  0.61190000  0.02130000  0.87430000  1
  O  O1  1  0.49250000  0.87430000  0.02130000  1
  O  O1  1  0.87430000  0.49250000  0.61190000  1
  O  O1  1  0.02130000  0.61190000  0.49250000  1
  O  O1  1  0.02130000  0.87430000  0.61190000  1
  O  O1  1  0.87430000  0.02130000  0.49250000  1
  O  O1  1  0.49250000  0.61190000  0.87430000  1
  O  O1  1  0.61190000  0.49250000  0.02130000  1
  O  O1  1  0.87430000  0.61190000  0.02130000  1
  O  O1  1  0.02130000  0.49250000  0.87430000  1
  O  O1  1  0.61190000  0.87430000  0.49250000  1
  O  O1  1  0.49250000  0.02130000  0.61190000  1
  O  O1  1  0.50750000  0.97870000  0.12570000  1
  O  O1  1  0.38810000  0.12570000  0.97870000  1
  O  O1  1  0.97870000  0.50750000  0.38810000  1
  O  O1  1  0.12570000  0.38810000  0.50750000  1
  O  O1  1  0.50750000  0.12570000  0.38810000  1
  O  O1  1  0.38810000  0.97870000  0.50750000  1
  O  O1  1  0.97870000  0.38810000  0.12570000  1
  O  O1  1  0.12570000  0.50750000  0.97870000  1
  O  O1  1  0.50750000  0.38810000  0.97870000  1
  O  O1  1  0.38810000  0.50750000  0.12570000  1
  O  O1  1  0.97870000  0.12570000  0.50750000  1
  O  O1  1  0.12570000  0.97870000  0.38810000  1
