
##########################################################################
#               Crystallographic Information Format file
#               Produced by PyCifRW module
#
#  This is a CIF file.  CIF has been adopted by the International
#  Union of Crystallography as the standard for data archiving and
#  transmission.
#
#  For information on this file format, follow the CIF links at
#  http://www.iucr.org
##########################################################################

data_image0

_cell_length_a                          18.266
_cell_length_b                          18.266
_cell_length_c                          18.266
_cell_angle_alpha                       60
_cell_angle_beta                        60
_cell_angle_gamma                       60
_symmetry_space_group_name_H-M          'P 1'
_symmetry_int_tables_number             1
loop_
  _symmetry_equiv_pos_as_xyz
         'x, y, z' 
loop_
  _atom_site_label
  _atom_site_occupancy
  _atom_site_fract_x
  _atom_site_fract_y
  _atom_site_fract_z
  _atom_site_thermal_displace_type
  _atom_site_B_iso_or_equiv
  _atom_site_type_symbol
  _atom_site_charge
         C1        1.0000    0.03890   0.90730   0.52690   Biso      1.000     C          -0.101327           
         C2        1.0000    0.44620   0.05380   0.05380   Biso      1.000     C          -0.010384000000000001         
         C3        1.0000    0.38870   0.11130   0.11130   Biso      1.000     C          0.573239  
         C4        1.0000    0.05380   0.44620   0.44620   Biso      1.000     C          -0.010385           
         C5        1.0000    0.11130   0.38870   0.38870   Biso      1.000     C          0.573239  
         C6        1.0000    0.90730   0.03890   0.52690   Biso      1.000     C          -0.101327           
         C7        1.0000    0.52690   0.52690   0.03890   Biso      1.000     C          -0.101327           
         C8        1.0000    0.52690   0.52690   0.90730   Biso      1.000     C          -0.101327           
         C9        1.0000    0.11130   0.38870   0.11130   Biso      1.000     C          0.573239  
         C10       1.0000    0.52690   0.03890   0.90730   Biso      1.000     C          -0.101327           
         C11       1.0000    0.03890   0.52690   0.52690   Biso      1.000     C          -0.101327           
         C12       1.0000    0.52690   0.90730   0.03890   Biso      1.000     C          -0.101328           
         C13       1.0000    0.52690   0.03890   0.52690   Biso      1.000     C          -0.101327           
         C14       1.0000    0.03890   0.52690   0.90730   Biso      1.000     C          -0.101327           
         C15       1.0000    0.90730   0.52690   0.03890   Biso      1.000     C          -0.101328           
         C16       1.0000    0.52690   0.90730   0.52690   Biso      1.000     C          -0.101328           
         C17       1.0000    0.47310   0.47310   0.96110   Biso      1.000     C          -0.10132100000000001          
         C18       1.0000    0.90730   0.52690   0.52690   Biso      1.000     C          -0.101328           
         C19       1.0000    0.47310   0.47310   0.09270   Biso      1.000     C          -0.10132100000000001          
         C20       1.0000    0.05380   0.44620   0.05380   Biso      1.000     C          -0.010384000000000001         
         C21       1.0000    0.44620   0.05380   0.44620   Biso      1.000     C          -0.010384000000000001         
         C22       1.0000    0.55380   0.55380   0.94620   Biso      1.000     C          -0.010379000000000001         
         C23       1.0000    0.61130   0.61130   0.88870   Biso      1.000     C          0.573239  
         C24       1.0000    0.94620   0.94620   0.55380   Biso      1.000     C          -0.010379000000000001         
         C25       1.0000    0.88870   0.88870   0.61130   Biso      1.000     C          0.573239  
         C26       1.0000    0.94620   0.55380   0.55380   Biso      1.000     C          -0.010379000000000001         
         C27       1.0000    0.88870   0.61130   0.61130   Biso      1.000     C          0.573239  
         C28       1.0000    0.55380   0.94620   0.94620   Biso      1.000     C          -0.010379000000000001         
         C29       1.0000    0.38870   0.11130   0.38870   Biso      1.000     C          0.573239  
         C30       1.0000    0.61130   0.88870   0.88870   Biso      1.000     C          0.573239  
         C31       1.0000    0.88870   0.61130   0.88870   Biso      1.000     C          0.573239  
         C32       1.0000    0.55380   0.94620   0.55380   Biso      1.000     C          -0.010379000000000001         
         C33       1.0000    0.61130   0.88870   0.61130   Biso      1.000     C          0.573239  
         C34       1.0000    0.44620   0.44620   0.05380   Biso      1.000     C          -0.01038  
         C35       1.0000    0.38870   0.38870   0.11130   Biso      1.000     C          0.573239  
         C36       1.0000    0.05380   0.05380   0.44620   Biso      1.000     C          -0.010384000000000001         
         C37       1.0000    0.11130   0.11130   0.38870   Biso      1.000     C          0.573239  
         C38       1.0000    0.94620   0.55380   0.94620   Biso      1.000     C          -0.010379000000000001         
         C39       1.0000    0.09270   0.96110   0.47310   Biso      1.000     C          -0.10131799999999999          
         C40       1.0000    0.96110   0.09270   0.47310   Biso      1.000     C          -0.10131799999999999          
         C41       1.0000    0.47310   0.09270   0.47310   Biso      1.000     C          -0.10131799999999999          
         C42       1.0000    0.47310   0.96110   0.47310   Biso      1.000     C          -0.10131799999999999          
         C43       1.0000    0.09270   0.47310   0.96110   Biso      1.000     C          -0.101319           
         C44       1.0000    0.96110   0.47310   0.47310   Biso      1.000     C          -0.10131799999999999          
         C45       1.0000    0.47310   0.96110   0.09270   Biso      1.000     C          -0.10131799999999999          
         C46       1.0000    0.47310   0.09270   0.96110   Biso      1.000     C          -0.101319           
         C47       1.0000    0.09270   0.47310   0.47310   Biso      1.000     C          -0.10131799999999999          
         C48       1.0000    0.96110   0.47310   0.09270   Biso      1.000     C          -0.10131799999999999          
         H1        1.0000    0.45520   0.45520   0.93500   Biso      1.000     H          0.12539   
         H2        1.0000    0.15460   0.93500   0.45520   Biso      1.000     H          0.12539   
         H3        1.0000    0.93500   0.45520   0.15460   Biso      1.000     H          0.12539   
         H4        1.0000    0.45520   0.15460   0.45520   Biso      1.000     H          0.12539   
         H5        1.0000    0.45520   0.93500   0.15460   Biso      1.000     H          0.12539   
         H6        1.0000    0.15460   0.45520   0.93500   Biso      1.000     H          0.12539   
         H7        1.0000    0.93500   0.45520   0.45520   Biso      1.000     H          0.12539   
         H8        1.0000    0.93500   0.15460   0.45520   Biso      1.000     H          0.12539   
         H9        1.0000    0.45520   0.15460   0.93500   Biso      1.000     H          0.12539   
         H10       1.0000    0.15460   0.45520   0.45520   Biso      1.000     H          0.12539   
         H11       1.0000    0.45520   0.93500   0.45520   Biso      1.000     H          0.12539   
         H12       1.0000    0.54480   0.84540   0.54480   Biso      1.000     H          0.125391  
         H13       1.0000    0.45520   0.45520   0.15460   Biso      1.000     H          0.125391  
         H14       1.0000    0.06500   0.54480   0.84540   Biso      1.000     H          0.125391  
         H15       1.0000    0.84540   0.54480   0.06500   Biso      1.000     H          0.125391  
         H16       1.0000    0.84540   0.06500   0.54480   Biso      1.000     H          0.125391  
         H17       1.0000    0.54480   0.54480   0.06500   Biso      1.000     H          0.125391  
         H18       1.0000    0.06500   0.84540   0.54480   Biso      1.000     H          0.125391  
         H19       1.0000    0.54480   0.54480   0.84540   Biso      1.000     H          0.125391  
         H20       1.0000    0.84540   0.54480   0.54480   Biso      1.000     H          0.125391  
         H21       1.0000    0.06500   0.54480   0.54480   Biso      1.000     H          0.125391  
         H22       1.0000    0.54480   0.84540   0.06500   Biso      1.000     H          0.125391  
         H23       1.0000    0.54480   0.06500   0.54480   Biso      1.000     H          0.125391  
         H24       1.0000    0.54480   0.06500   0.84540   Biso      1.000     H          0.125391  
         O1        1.0000    0.19777   0.07023   0.36600   Biso      1.000     O          -0.536983           
         O2        1.0000    0.80223   0.63400   0.92977   Biso      1.000     O          -0.536982           
         O3        1.0000    0.36600   0.36600   0.19777   Biso      1.000     O          -0.536982           
         O4        1.0000    0.36600   0.36600   0.07023   Biso      1.000     O          -0.536983           
         O5        1.0000    0.07023   0.19777   0.36600   Biso      1.000     O          -0.536983           
         O6        1.0000    0.63400   0.80223   0.63400   Biso      1.000     O          -0.536982           
         O7        1.0000    0.63400   0.63400   0.80223   Biso      1.000     O          -0.536982           
         O8        1.0000    0.63400   0.80223   0.92977   Biso      1.000     O          -0.536982           
         O9        1.0000    0.63400   0.92977   0.80223   Biso      1.000     O          -0.536982           
         O10       1.0000    0.80223   0.63400   0.63400   Biso      1.000     O          -0.536982           
         O11       1.0000    0.92977   0.63400   0.63400   Biso      1.000     O          -0.536982           
         O12       1.0000    0.63400   0.92977   0.63400   Biso      1.000     O          -0.536982           
         O13       1.0000    0.07023   0.36600   0.19777   Biso      1.000     O          -0.536983           
         O14       1.0000    0.92977   0.63400   0.80223   Biso      1.000     O          -0.536982           
         O15       1.0000    0.92977   0.80223   0.63400   Biso      1.000     O          -0.536982           
         O16       1.0000    0.36600   0.19777   0.36600   Biso      1.000     O          -0.536983           
         O17       1.0000    0.80223   0.92977   0.63400   Biso      1.000     O          -0.536983           
         O18       1.0000    0.19777   0.36600   0.07023   Biso      1.000     O          -0.536983           
         O19       1.0000    0.07023   0.36600   0.36600   Biso      1.000     O          -0.536983           
         O20       1.0000    0.36600   0.07023   0.19777   Biso      1.000     O          -0.536983           
         O21       1.0000    0.36600   0.19777   0.07023   Biso      1.000     O          -0.536983           
         O22       1.0000    0.19777   0.36600   0.36600   Biso      1.000     O          -0.536982           
         O23       1.0000    0.75000   0.75000   0.75000   Biso      1.000     O          -1.0267899999999999           
         O24       1.0000    0.25000   0.25000   0.25000   Biso      1.000     O          -1.026791           
         O25       1.0000    0.63400   0.63400   0.92977   Biso      1.000     O          -0.536982           
         O26       1.0000    0.36600   0.07023   0.36600   Biso      1.000     O          -0.536982           
         Zn1       1.0000    0.29338   0.29338   0.11986   Biso      1.000     Zn          0.951156  
         Zn2       1.0000    0.29338   0.11986   0.29338   Biso      1.000     Zn          0.951156  
         Zn3       1.0000    0.11986   0.29338   0.29338   Biso      1.000     Zn          0.951156  
         Zn4       1.0000    0.70662   0.88014   0.70662   Biso      1.000     Zn          0.951156  
         Zn5       1.0000    0.70662   0.70662   0.88014   Biso      1.000     Zn          0.951156  
         Zn6       1.0000    0.88014   0.70662   0.70662   Biso      1.000     Zn          0.951156  
         Zn7       1.0000    0.70662   0.70662   0.70662   Biso      1.000     Zn          0.951156  
         Zn8       1.0000    0.29338   0.29338   0.29338   Biso      1.000     Zn          0.9511569999999999 