# generated using pymatgen
data_MnH2C3N3ClO
_symmetry_space_group_name_H-M   'P 1'
_cell_length_a   8.55790000
_cell_length_b   24.23193373
_cell_length_c   24.23230000
_cell_angle_alpha   60.00050000
_cell_angle_beta   89.99990000
_cell_angle_gamma   90.00020000
_symmetry_Int_Tables_number   1
_chemical_formula_structural   MnH2C3N3ClO
_chemical_formula_sum   'Mn18 H36 C54 N54 Cl18 O18'
_cell_volume   4351.93837287
_cell_formula_units_Z   18
loop_
 _symmetry_equiv_pos_site_id
 _symmetry_equiv_pos_as_xyz
  1  'x, y, z'
loop_
 _atom_site_type_symbol
 _atom_site_label
 _atom_site_symmetry_multiplicity
 _atom_site_fract_x
 _atom_site_fract_y
 _atom_site_fract_z
 _atom_site_occupancy
  C  C1  1  0.49256000  0.82041000  0.81752000  1.0
  C  C2  1  0.92254000  0.55357000  0.46034000  1.0
  C  C3  1  0.82556000  0.15211000  0.69518000  1.0
  C  C4  1  0.58984000  0.65230000  0.22175000  1.0
  C  C5  1  0.50784000  0.18122000  0.63817000  1.0
  C  C6  1  0.25663000  0.31979000  0.88970000  1.0
  C  C7  1  0.92256000  0.98609000  0.55357000  1.0
  C  C8  1  0.82554000  0.15271000  0.15211000  1.0
  C  C9  1  0.58936000  0.22117000  0.65397000  1.0
  C  C10  1  0.74356000  0.68105000  0.11157000  1.0
  C  C11  1  0.25668000  0.88640000  0.32013000  1.0
  C  C12  1  0.07664000  0.01354000  0.44366000  1.0
  C  C13  1  0.15830000  0.48429000  0.48730000  1.0
  C  C14  1  0.92244000  0.55628000  0.98636000  1.0
  C  C15  1  0.49254000  0.81752000  0.36206000  1.0
  C  C16  1  0.17496000  0.84601000  0.30493000  1.0
  C  C17  1  0.58936000  0.65397000  0.12486000  1.0
  C  C18  1  0.25668000  0.32013000  0.79347000  1.0
  C  C19  1  0.74356000  0.11157000  0.20738000  1.0
  C  C20  1  0.92244000  0.98635000  0.45737000  1.0
  C  C21  1  0.82556000  0.69518000  0.15271000  1.0
  C  C22  1  0.58936000  0.12486000  0.22117000  1.0
  C  C23  1  0.15830000  0.48729000  0.02842000  1.0
  C  C24  1  0.07664000  0.44366000  0.54280000  1.0
  C  C25  1  0.25668000  0.79347000  0.88640000  1.0
  C  C26  1  0.15830000  0.02841000  0.48429000  1.0
  C  C27  1  0.92244000  0.45736000  0.55629000  1.0
  C  C28  1  0.41076000  0.87297000  0.34723000  1.0
  C  C29  1  0.41076000  0.77980000  0.87298000  1.0
  C  C30  1  0.49256000  0.36207000  0.82041000  1.0
  C  C31  1  0.07664000  0.54280000  0.01354000  1.0
  C  C32  1  0.41076000  0.34723000  0.77980000  1.0
  C  C33  1  0.25662000  0.88970000  0.79051000  1.0
  C  C34  1  0.74356000  0.20738000  0.68105000  1.0
  C  C35  1  0.58984000  0.22175000  0.12595000  1.0
  C  C36  1  0.41084000  0.77703000  0.34696000  1.0
  C  C37  1  0.07660000  0.44691000  0.01320000  1.0
  C  C38  1  0.17498000  0.30493000  0.84906000  1.0
  C  C39  1  0.74404000  0.11216000  0.67938000  1.0
  C  C40  1  0.41086000  0.34696000  0.87601000  1.0
  C  C41  1  0.50784000  0.63817000  0.18060000  1.0
  C  C42  1  0.07660000  0.01320000  0.53989000  1.0
  C  C43  1  0.74405000  0.67938000  0.20846000  1.0
  C  C44  1  0.41086000  0.87601000  0.77703000  1.0
  C  C45  1  0.07660000  0.53989000  0.44690000  1.0
  C  C46  1  0.17498000  0.84906000  0.84601000  1.0
  C  C47  1  0.74404000  0.20846000  0.11216000  1.0
  C  C48  1  0.84076000  0.51296000  0.51580000  1.0
  C  C49  1  0.50784000  0.18061000  0.18122000  1.0
  C  C50  1  0.84076000  0.51580000  0.97124000  1.0
  C  C51  1  0.58984000  0.12595000  0.65230000  1.0
  C  C52  1  0.92254000  0.46034000  0.98609000  1.0
  C  C53  1  0.25662000  0.79051000  0.31979000  1.0
  C  C54  1  0.84076000  0.97124000  0.51296000  1.0
  Cl  Cl55  1  0.49965000  0.56964000  0.42968000  1.0
  Cl  Cl56  1  0.83370000  0.76368000  0.90359000  1.0
  Cl  Cl57  1  0.16492000  0.24074000  0.09850000  1.0
  Cl  Cl58  1  0.83370000  0.90358000  0.33274000  1.0
  Cl  Cl59  1  0.83334000  0.90533000  0.76118000  1.0
  Cl  Cl60  1  0.49966000  0.42968000  0.00068000  1.0
  Cl  Cl61  1  0.16842000  0.09259000  0.23488000  1.0
  Cl  Cl62  1  0.83370000  0.33273000  0.76369000  1.0
  Cl  Cl63  1  0.83334000  0.76118000  0.33349000  1.0
  Cl  Cl64  1  0.49992000  0.99983000  0.42800000  1.0
  Cl  Cl65  1  0.49966000  0.00068000  0.56964000  1.0
  Cl  Cl66  1  0.49992000  0.57217000  0.99984000  1.0
  Cl  Cl67  1  0.16492000  0.66075000  0.24074000  1.0
  Cl  Cl68  1  0.16842000  0.67253000  0.09259000  1.0
  Cl  Cl69  1  0.83334000  0.33348000  0.90534000  1.0
  Cl  Cl70  1  0.49993000  0.42799000  0.57218000  1.0
  Cl  Cl71  1  0.16492000  0.09850000  0.66076000  1.0
  Cl  Cl72  1  0.16842000  0.23488000  0.67253000  1.0
  H  H73  1  0.60832000  0.80727000  0.38308000  1.0
  H  H74  1  0.27396000  0.47622000  0.04954000  1.0
  H  H75  1  0.57526000  0.48690000  0.64449000  1.0
  H  H76  1  0.57526000  0.64449000  0.86861000  1.0
  H  H77  1  0.72500000  0.95019000  0.52375000  1.0
  H  H78  1  0.57525000  0.86861000  0.48690000  1.0
  H  H79  1  0.05930000  0.28382000  0.85910000  1.0
  H  H80  1  0.24644000  0.31060000  0.15565000  1.0
  H  H81  1  0.91202000  0.97994000  0.81874000  1.0
  H  H82  1  0.39204000  0.61716000  0.19064000  1.0
  H  H83  1  0.24644000  0.15565000  0.53375000  1.0
  H  H84  1  0.72500000  0.52375000  0.52605000  1.0
  H  H85  1  0.91202000  0.81874000  0.20132000  1.0
  H  H86  1  0.05930000  0.85911000  0.85707000  1.0
  H  H87  1  0.24644000  0.53375000  0.31060000  1.0
  H  H88  1  0.91202000  0.20131000  0.97995000  1.0
  H  H89  1  0.39204000  0.19064000  0.19220000  1.0
  H  H90  1  0.72500000  0.52606000  0.95019000  1.0
  H  H91  1  0.94135000  0.14114000  0.71619000  1.0
  H  H92  1  0.05929000  0.85708000  0.28381000  1.0
  H  H93  1  0.75780000  0.68879000  0.46481000  1.0
  H  H94  1  0.75780000  0.46481000  0.84640000  1.0
  H  H95  1  0.94134000  0.14267000  0.14114000  1.0
  H  H96  1  0.60834000  0.38308000  0.80965000  1.0
  H  H97  1  0.08700000  0.79958000  0.02271000  1.0
  H  H98  1  0.27397000  0.04954000  0.47424000  1.0
  H  H99  1  0.42144000  0.13197000  0.35342000  1.0
  H  H100  1  0.39206000  0.19220000  0.61716000  1.0
  H  H101  1  0.08700000  0.17771000  0.79958000  1.0
  H  H102  1  0.94134000  0.71619000  0.14267000  1.0
  H  H103  1  0.42142000  0.51461000  0.13197000  1.0
  H  H104  1  0.60834000  0.80965000  0.80727000  1.0
  H  H105  1  0.08698000  0.02271000  0.17771000  1.0
  H  H106  1  0.27396000  0.47424000  0.47622000  1.0
  H  H107  1  0.42144000  0.35342000  0.51461000  1.0
  H  H108  1  0.75780000  0.84640000  0.68879000  1.0
  Mn  Mn109  1  0.66626000  0.38553000  0.66862000  1.0
  Mn  Mn110  1  0.66624000  0.94585000  0.38553000  1.0
  Mn  Mn111  1  0.00042000  0.72225000  0.99848000  1.0
  Mn  Mn112  1  0.33374000  0.05214000  0.33207000  1.0
  Mn  Mn113  1  0.00042000  0.27927000  0.72224000  1.0
  Mn  Mn114  1  0.33374000  0.61579000  0.05214000  1.0
  Mn  Mn115  1  0.99958000  0.71755000  0.28117000  1.0
  Mn  Mn116  1  0.66710000  0.66473000  0.38746000  1.0
  Mn  Mn117  1  0.66624000  0.66862000  0.94585000  1.0
  Mn  Mn118  1  0.66710000  0.38746000  0.94781000  1.0
  Mn  Mn119  1  0.66711000  0.94781000  0.66473000  1.0
  Mn  Mn120  1  0.00042000  0.99849000  0.27927000  1.0
  Mn  Mn121  1  0.33294000  0.05410000  0.61109000  1.0
  Mn  Mn122  1  0.33374000  0.33207000  0.61580000  1.0
  Mn  Mn123  1  0.33294000  0.33481000  0.05410000  1.0
  Mn  Mn124  1  0.99958000  0.28118000  0.00127000  1.0
  Mn  Mn125  1  0.33292000  0.61108000  0.33482000  1.0
  Mn  Mn126  1  0.99958000  0.00128000  0.71754000  1.0
  N  N127  1  0.54730000  0.27857000  0.64813000  1.0
  N  N128  1  0.21454000  0.94415000  0.31326000  1.0
  N  N129  1  0.88038000  0.61405000  0.97948000  1.0
  N  N130  1  0.54730000  0.64813000  0.07330000  1.0
  N  N131  1  0.21454000  0.31326000  0.74259000  1.0
  N  N132  1  0.33304000  0.96439000  0.33344000  1.0
  N  N133  1  0.88105000  0.97937000  0.61139000  1.0
  N  N134  1  0.21454000  0.74259000  0.94415000  1.0
  N  N135  1  0.88038000  0.40647000  0.61405000  1.0
  N  N136  1  0.45228000  0.92407000  0.35396000  1.0
  N  N137  1  0.11840000  0.59392000  0.02019000  1.0
  N  N138  1  0.78524000  0.25780000  0.68878000  1.0
  N  N139  1  0.45228000  0.72197000  0.92408000  1.0
  N  N140  1  0.11840000  0.38589000  0.59392000  1.0
  N  N141  1  0.78524000  0.05343000  0.25779000  1.0
  N  N142  1  0.88039000  0.97948000  0.40647000  1.0
  N  N143  1  0.54730000  0.07330000  0.27857000  1.0
  N  N144  1  0.88105000  0.61139000  0.40924000  1.0
  N  N145  1  0.54814000  0.64458000  0.27988000  1.0
  N  N146  1  0.11874000  0.38915000  0.02009000  1.0
  N  N147  1  0.78610000  0.05476000  0.68523000  1.0
  N  N148  1  0.45290000  0.35384000  0.92690000  1.0
  N  N149  1  0.11874000  0.02009000  0.59076000  1.0
  N  N150  1  0.78608000  0.68523000  0.26001000  1.0
  N  N151  1  0.45290000  0.92690000  0.71926000  1.0
  N  N152  1  0.21488000  0.31314000  0.94747000  1.0
  N  N153  1  0.11874000  0.59075000  0.38916000  1.0
  N  N154  1  0.54814000  0.07554000  0.64458000  1.0
  N  N155  1  0.21488000  0.73939000  0.31314000  1.0
  N  N156  1  0.88104000  0.40924000  0.97936000  1.0
  N  N157  1  0.54814000  0.27988000  0.07554000  1.0
  N  N158  1  0.21488000  0.94747000  0.73939000  1.0
  N  N159  1  0.45228000  0.35396000  0.72197000  1.0
  N  N160  1  0.78610000  0.26001000  0.05476000  1.0
  N  N161  1  0.11840000  0.02019000  0.38589000  1.0
  N  N162  1  0.45290000  0.71926000  0.35384000  1.0
  N  N163  1  0.33304000  0.33345000  0.70216000  1.0
  N  N164  1  0.99922000  0.99966000  0.36608000  1.0
  N  N165  1  0.33406000  0.69905000  0.33366000  1.0
  N  N166  1  0.00026000  0.36891000  0.99991000  1.0
  N  N167  1  0.33407000  0.33366000  0.96729000  1.0
  N  N168  1  0.00026000  0.99990000  0.63118000  1.0
  N  N169  1  0.33406000  0.96729000  0.69905000  1.0
  N  N170  1  0.00026000  0.63118000  0.36892000  1.0
  N  N171  1  0.66686000  0.03524000  0.66435000  1.0
  N  N172  1  0.78524000  0.68878000  0.05343000  1.0
  N  N173  1  0.66688000  0.66434000  0.30042000  1.0
  N  N174  1  0.66650000  0.29809000  0.66902000  1.0
  N  N175  1  0.66650000  0.66902000  0.03289000  1.0
  N  N176  1  0.66650000  0.03289000  0.29809000  1.0
  N  N177  1  0.99922000  0.63426000  0.99967000  1.0
  N  N178  1  0.33304000  0.70217000  0.96439000  1.0
  N  N179  1  0.99922000  0.36607000  0.63427000  1.0
  N  N180  1  0.66686000  0.30041000  0.03524000  1.0
  O  O181  1  0.00111000  0.20471000  0.79870000  1.0
  O  O182  1  0.00110000  0.99659000  0.20470000  1.0
  O  O183  1  0.33262000  0.12871000  0.32990000  1.0
  O  O184  1  0.00112000  0.79871000  0.99658000  1.0
  O  O185  1  0.33262000  0.32991000  0.54139000  1.0
  O  O186  1  0.66580000  0.87067000  0.46139000  1.0
  O  O187  1  0.66580000  0.46140000  0.66793000  1.0
  O  O188  1  0.00078000  0.20459000  0.00348000  1.0
  O  O189  1  0.00077000  0.79193000  0.20460000  1.0
  O  O190  1  0.00078000  0.00347000  0.79194000  1.0
  O  O191  1  0.33238000  0.33669000  0.12867000  1.0
  O  O192  1  0.33238000  0.12867000  0.53464000  1.0
  O  O193  1  0.66734000  0.87198000  0.66534000  1.0
  O  O194  1  0.66734000  0.46268000  0.87198000  1.0
  O  O195  1  0.66734000  0.66534000  0.46268000  1.0
  O  O196  1  0.66580000  0.66794000  0.87066000  1.0
  O  O197  1  0.33238000  0.53463000  0.33669000  1.0
  O  O198  1  0.33262000  0.54139000  0.12871000  1.0
