data_image0
_chemical_formula_structural       V2H16C28O10
_chemical_formula_sum              "V2 H16 C28 O10"
_cell_length_a       6.91963
_cell_length_b       15.4291
_cell_length_c       15.4291
_cell_angle_alpha    86.1639
_cell_angle_beta     77.0431
_cell_angle_gamma    77.0431

_space_group_name_H-M_alt    "P 1"
_space_group_IT_number       1

loop_
  _space_group_symop_operation_xyz
  'x, y, z'

loop_
  _atom_site_type_symbol
  _atom_site_label
  _atom_site_symmetry_multiplicity
  _atom_site_fract_x
  _atom_site_fract_y
  _atom_site_fract_z
  _atom_site_occupancy
  V   V1        1.0  0.50000  0.00000  0.00000  1.0000
  V   V2        1.0  0.00000  1.00000  1.00000  1.0000
  H   H1        1.0  0.69377  0.72758  0.00313  1.0000
  H   H2        1.0  0.77753  0.56373  0.00389  1.0000
  H   H3        1.0  0.80623  0.99687  0.27242  1.0000
  H   H4        1.0  0.72247  0.99611  0.43627  1.0000
  H   H5        1.0  0.92448  0.27242  0.99687  1.0000
  H   H6        1.0  0.84516  0.43627  0.99611  1.0000
  H   H7        1.0  0.57552  0.00313  0.72758  1.0000
  H   H8        1.0  0.65484  0.00389  0.56373  1.0000
  H   H9        1.0  0.30623  0.27242  0.99687  1.0000
  H   H10       1.0  0.22247  0.43627  0.99611  1.0000
  H   H11       1.0  0.19377  0.00313  0.72758  1.0000
  H   H12       1.0  0.27752  0.00389  0.56373  1.0000
  H   H13       1.0  0.07552  0.72758  0.00313  1.0000
  H   H14       1.0  0.15484  0.56373  0.00389  1.0000
  H   H15       1.0  0.42447  0.99687  0.27242  1.0000
  H   H16       1.0  0.34516  0.99611  0.43627  1.0000
  C   C1        1.0  0.57831  0.69038  0.00240  1.0000
  C   C2        1.0  0.62350  0.59813  0.00260  1.0000
  C   C3        1.0  0.92169  0.99760  0.30962  1.0000
  C   C4        1.0  0.87650  0.99740  0.40187  1.0000
  C   C5        1.0  0.77109  0.30962  0.99760  1.0000
  C   C6        1.0  0.72423  0.40188  0.99740  1.0000
  C   C7        1.0  0.72891  0.00240  0.69038  1.0000
  C   C8        1.0  0.77577  0.00260  0.59812  1.0000
  C   C9        1.0  0.42169  0.30962  0.99760  1.0000
  C   C10       1.0  0.37650  0.40187  0.99740  1.0000
  C   C11       1.0  0.07831  0.00240  0.69038  1.0000
  C   C12       1.0  0.12350  0.00260  0.59813  1.0000
  C   C13       1.0  0.22891  0.69038  0.00240  1.0000
  C   C14       1.0  0.27577  0.59812  0.00260  1.0000
  C   C15       1.0  0.27109  0.99760  0.30962  1.0000
  C   C16       1.0  0.22423  0.99740  0.40188  1.0000
  C   C17       1.0  0.33293  0.83597  0.99819  1.0000
  C   C18       1.0  0.38084  0.73730  0.00102  1.0000
  C   C19       1.0  0.47471  0.54936  0.00121  1.0000
  C   C20       1.0  0.16708  0.00181  0.16404  1.0000
  C   C21       1.0  0.11916  0.99898  0.26270  1.0000
  C   C22       1.0  0.02529  0.99879  0.45064  1.0000
  C   C23       1.0  0.66705  0.16404  0.00181  1.0000
  C   C24       1.0  0.61916  0.26270  0.99898  1.0000
  C   C25       1.0  0.52529  0.45064  0.99879  1.0000
  C   C26       1.0  0.83293  0.99819  0.83597  1.0000
  C   C27       1.0  0.88084  0.00102  0.73730  1.0000
  C   C28       1.0  0.97471  0.00121  0.54936  1.0000
  O   O1        1.0  0.47915  0.87452  0.99717  1.0000
  O   O2        1.0  0.02084  0.00283  0.12548  1.0000
  O   O3        1.0  0.85083  0.12548  0.00281  1.0000
  O   O4        1.0  0.64918  0.99719  0.87452  1.0000
  O   O5        1.0  0.52086  0.12548  0.00283  1.0000
  O   O6        1.0  0.97915  0.99717  0.87452  1.0000
  O   O7        1.0  0.14918  0.87452  0.99719  1.0000
  O   O8        1.0  0.35082  0.00280  0.12548  1.0000
  O   O9        1.0  0.75000  0.96910  0.03090  1.0000
  O   O10       1.0  0.25000  0.03090  0.96910  1.0000
