data_image0
_chemical_formula_structural       V2H16C28O10
_chemical_formula_sum              "V2 H16 C28 O10"
_cell_length_a       6.877385997401713
_cell_length_b       15.523537195234464
_cell_length_c       15.523539752790233
_cell_angle_alpha    86.20659219302837
_cell_angle_beta     77.20316639959877
_cell_angle_gamma    77.20316468490012

_space_group_name_H-M_alt    "P 1"
_space_group_IT_number       1

loop_
  _space_group_symop_operation_xyz
  'x, y, z'

loop_
  _atom_site_type_symbol
  _atom_site_label
  _atom_site_symmetry_multiplicity
  _atom_site_fract_x
  _atom_site_fract_y
  _atom_site_fract_z
  _atom_site_occupancy
  V   V1        1.0  0.48260147265651027  0.0032497222820100577  0.996750733651786  1.0000
  V   V2        1.0  0.9826011975626447  0.9967504035931464  0.0032500228185661406  1.0000
  H   H1        1.0  0.6988454775422985  0.7253956555270898  0.0020740639355879996  1.0000
  H   H2        1.0  0.7816232721133263  0.563414417804288  0.004337672245659684  1.0000
  H   H3        1.0  0.8021307749003809  0.9979934203592329  0.2743981487097533  1.0000
  H   H4        1.0  0.7187194386482939  0.9956773257478426  0.43636733011088075  1.0000
  H   H5        1.0  0.9263127759097186  0.27460970514300026  0.9979229054183769  1.0000
  H   H6        1.0  0.8493722267197009  0.4365912732433305  0.9956618644616617  1.0000
  H   H7        1.0  0.5745247993682607  0.0020093120308980273  0.7255971059844597  1.0000
  H   H8        1.0  0.650766649385153  0.004323615855809305  0.5636276187957023  1.0000
  H   H9        1.0  0.3021312575874133  0.27439787478579575  0.9979935324987064  1.0000
  H   H10       1.0  0.2187203944335733  0.4363670460416511  0.9956766998502942  1.0000
  H   H11       1.0  0.1988450931640523  0.0020742685405028918  0.7253958204360896  1.0000
  H   H12       1.0  0.28162276647542456  0.004337497272476315  0.563414653154142  1.0000
  H   H13       1.0  0.07452502349431245  0.7255968367804727  0.002009399371764366  1.0000
  H   H14       1.0  0.1507670084624155  0.5636272908131398  0.004323964313408425  1.0000
  H   H15       1.0  0.4263125740152975  0.9979223081554793  0.27461010528109125  1.0000
  H   H16       1.0  0.3493714831904126  0.9956622080419743  0.436591617368931  1.0000
  C   C1        1.0  0.5808813652534272  0.6888927928313456  0.0017135473135556829  1.0000
  C   C2        1.0  0.6258746274349138  0.5971637910552512  0.0026652125663013462  1.0000
  C   C3        1.0  0.9201190105740843  0.9983287216803953  0.31091648978936265  1.0000
  C   C4        1.0  0.8745257283305709  0.9973524047156078  0.4026451969813906  1.0000
  C   C5        1.0  0.771485943893269  0.31111030558207586  0.9982848586236455  1.0000
  C   C6        1.0  0.7257020460933203  0.40283923840160213  0.997334196680797  1.0000
  C   C7        1.0  0.7293655600243585  0.001672393733453924  0.6890811180747644  1.0000
  C   C8        1.0  0.7745246433822525  0.002648319330125089  0.5973522841397024  1.0000
  C   C9        1.0  0.420119193023548  0.3109161595532865  0.9983288987204193  1.0000
  C   C10       1.0  0.37452637184445214  0.40264492933150436  0.9973521584351097  1.0000
  C   C11       1.0  0.08088095670472525  0.0017137569363455834  0.6888929479222559  1.0000
  C   C12       1.0  0.1258743353661699  0.0026651890416446527  0.5971640039103973  1.0000
  C   C13       1.0  0.2293661593965896  0.6890808161543848  0.0016723303099093463  1.0000
  C   C14       1.0  0.2745250695934095  0.597352051579809  0.0026484447397293097  1.0000
  C   C15       1.0  0.2714857731581239  0.9982844525578292  0.3111106323114538  1.0000
  C   C16       1.0  0.22570135753455664  0.997334315681348  0.4028396148970021  1.0000
  C   C17       1.0  0.336092777464244  0.8344474311668569  0.9965340970243964  1.0000
  C   C18       1.0  0.38292361955957943  0.7356992641825869  0.9999859087081182  1.0000
  C   C19       1.0  0.47506717844319896  0.5486812876807208  0.0013020331198328335  1.0000
  C   C20       1.0  0.16707253950514953  0.0034641931328332513  0.16555288735573717  1.0000
  C   C21       1.0  0.11860803522870454  1.283159096443498e-05  0.26430103987736353  1.0000
  C   C22       1.0  0.025049792985775074  0.998698137269244  0.4513190103852598  1.0000
  C   C23       1.0  0.6670703495781461  0.16555247110664087  0.0034661099992531045  1.0000
  C   C24       1.0  0.6186083080557329  0.2643006800166651  1.358824335495612e-05  1.0000
  C   C25       1.0  0.5250503179273246  0.45131870490315146  0.9986980087307982  1.0000
  C   C26       1.0  0.8360911215179349  0.9965356342974253  0.8344476778074132  1.0000
  C   C27       1.0  0.8829231701878397  0.9999864438464181  0.7356995399789382  1.0000
  C   C28       1.0  0.9750666016624321  0.0013020477881799705  0.5486815979549526  1.0000
  O   O1        1.0  0.4828651615536671  0.8722129054985616  0.9957755407903356  1.0000
  O   O2        1.0  0.019269443533978338  0.0056143620809357185  0.12812510336161992  1.0000
  O   O3        1.0  0.8508621237162453  0.1277876369750852  0.004195191040175081  1.0000
  O   O4        1.0  0.6529991613216458  0.994416441391584  0.8718744989608241  1.0000
  O   O5        1.0  0.5192695730747884  0.1281248858647667  0.005616470033209589  1.0000
  O   O6        1.0  0.9828639102406094  0.9957778437317074  0.8722131266984002  1.0000
  O   O7        1.0  0.15299973402709532  0.8718743590333143  0.9944147764273419  1.0000
  O   O8        1.0  0.35086247512511554  0.004192523291641072  0.1277880410238899  1.0000
  O   O9        1.0  0.7518068516107487  0.9666815833889915  0.03331815660026225  1.0000
  O   O10       1.0  0.251805981604436  0.03331851449915822  0.9666824063307142  1.0000
