# generated using pymatgen
data_SiNiH8C8(N2F3)2
_symmetry_space_group_name_H-M   'P 1'
_cell_length_a   7.07365000
_cell_length_b   7.07370000
_cell_length_c   7.59570000
_cell_angle_alpha   89.99240000
_cell_angle_beta   90.00570000
_cell_angle_gamma   89.99850000
_symmetry_Int_Tables_number   1
_chemical_formula_structural   SiNiH8C8(N2F3)2
_chemical_formula_sum   'Si1 Ni1 H8 C8 N4 F6'
_cell_volume   380.06510891
_cell_formula_units_Z   1
loop_
 _symmetry_equiv_pos_site_id
 _symmetry_equiv_pos_as_xyz
  1  'x, y, z'
loop_
 _atom_site_type_symbol
 _atom_site_label
 _atom_site_symmetry_multiplicity
 _atom_site_fract_x
 _atom_site_fract_y
 _atom_site_fract_z
 _atom_site_occupancy
  C  C1  1  0.49996000  0.09884000  0.34892750  1.0
  C  C2  1  0.90118000  0.49976000  0.34892000  1.0
  C  C3  1  0.49996000  0.09878000  0.65104000  1.0
  C  C4  1  0.90122000  0.50012000  0.65104000  1.0
  C  C5  1  0.50006000  0.90118000  0.65106250  1.0
  C  C6  1  0.09882000  0.50024000  0.65108000  1.0
  C  C7  1  0.50006000  0.90122000  0.34896000  1.0
  C  C8  1  0.09878000  0.49988000  0.34896000  1.0
  F  F9  1  0.66946000  0.33054000  0.00006000  1.0
  F  F10  1  0.33054000  0.66946000  0.99994000  1.0
  F  F11  1  0.66946000  0.66945000  0.00000000  1.0
  F  F12  1  0.33055500  0.33056000  0.00002000  1.0
  F  F13  1  0.50003000  0.49996000  0.76736000  1.0
  F  F14  1  0.49996000  0.50004000  0.23263250  1.0
  H  H15  1  0.17580000  0.49980000  0.22522250  1.0
  H  H16  1  0.50012000  0.82422000  0.22524000  1.0
  H  H17  1  0.17580000  0.50046000  0.77478000  1.0
  H  H18  1  0.50010000  0.82420000  0.77478000  1.0
  H  H19  1  0.82422000  0.50022000  0.77476000  1.0
  H  H20  1  0.49990000  0.17580000  0.77476000  1.0
  H  H21  1  0.82420000  0.49956000  0.22522000  1.0
  H  H22  1  0.49990000  0.17580000  0.22522000  1.0
  N  N23  1  0.49990000  0.19772000  0.49998250  1.0
  N  N24  1  0.50010000  0.80230000  0.50000250  1.0
  N  N25  1  0.19770500  0.50012000  0.50000250  1.0
  N  N26  1  0.80230000  0.49990000  0.49999750  1.0
  Ni  Ni27  1  0.50000000  0.50000000  0.50000000  1.0
  Si  Si28  1  0.50000000  0.50000000  0.00000000  1.0
