data_image0
_cell_length_a       26.179
_cell_length_b       26.179
_cell_length_c       6.652
_cell_angle_alpha    90
_cell_angle_beta     90
_cell_angle_gamma    120

_symmetry_space_group_name_H-M    "P 1"
_symmetry_int_tables_number       1

loop_
  _symmetry_equiv_pos_as_xyz
  'x, y, z'

loop_
  _atom_site_label
  _atom_site_occupancy
  _atom_site_fract_x
  _atom_site_fract_y
  _atom_site_fract_z
  _atom_site_thermal_displace_type
  _atom_site_B_iso_or_equiv
  _atom_site_type_symbol
  Zn1      1.0000 0.38790  0.35068  0.15211  Biso   1.000  Zn
  C1       1.0000 0.32290  0.20386  0.28779  Biso   1.000  C
  C2       1.0000 0.34291  0.22040  0.09164  Biso   1.000  C
  C3       1.0000 0.35335  0.18320  0.97052  Biso   1.000  C
  H1       1.0000 0.36889  0.19605  0.81817  Biso   1.000  H
  C4       1.0000 0.31168  0.24386  0.41805  Biso   1.000  C
  O1       1.0000 0.32032  0.29230  0.35040  Biso   1.000  O
  O2       1.0000 0.29364  0.22895  0.59490  Biso   1.000  O
  O3       1.0000 0.35220  0.27243  0.01900  Biso   1.000  O
  Zn2      1.0000 0.05457  0.68401  0.48544  Biso   1.000  Zn
  C5       1.0000 0.98957  0.53719  0.62112  Biso   1.000  C
  C6       1.0000 0.00958  0.55373  0.42497  Biso   1.000  C
  C7       1.0000 0.02002  0.51653  0.30385  Biso   1.000  C
  H2       1.0000 0.03556  0.52938  0.15150  Biso   1.000  H
  C8       1.0000 0.97835  0.57719  0.75138  Biso   1.000  C
  O4       1.0000 0.98699  0.62563  0.68373  Biso   1.000  O
  O5       1.0000 0.96031  0.56228  0.92823  Biso   1.000  O
  O6       1.0000 0.01887  0.60576  0.35233  Biso   1.000  O
  Zn3      1.0000 0.72123  0.01735  0.81878  Biso   1.000  Zn
  C9       1.0000 0.65623  0.87053  0.95446  Biso   1.000  C
  C10      1.0000 0.67624  0.88707  0.75831  Biso   1.000  C
  C11      1.0000 0.68668  0.84987  0.63719  Biso   1.000  C
  H3       1.0000 0.70222  0.86272  0.48484  Biso   1.000  H
  C12      1.0000 0.64501  0.91053  0.08472  Biso   1.000  C
  O7       1.0000 0.65365  0.95897  0.01707  Biso   1.000  O
  O8       1.0000 0.62697  0.89562  0.26157  Biso   1.000  O
  O9       1.0000 0.68553  0.93910  0.68567  Biso   1.000  O
  Zn4      1.0000 0.64932  0.03722  0.15211  Biso   1.000  Zn
  C13      1.0000 0.79614  0.11904  0.28779  Biso   1.000  C
  C14      1.0000 0.77960  0.12251  0.09164  Biso   1.000  C
  C15      1.0000 0.81680  0.17015  0.97052  Biso   1.000  C
  H4       1.0000 0.80395  0.17284  0.81817  Biso   1.000  H
  C16      1.0000 0.75614  0.06782  0.41805  Biso   1.000  C
  O10      1.0000 0.70770  0.02802  0.35040  Biso   1.000  O
  O11      1.0000 0.77105  0.06469  0.59490  Biso   1.000  O
  O12      1.0000 0.72757  0.07977  0.01900  Biso   1.000  O
  Zn5      1.0000 0.31599  0.37055  0.48544  Biso   1.000  Zn
  C17      1.0000 0.46281  0.45237  0.62112  Biso   1.000  C
  C18      1.0000 0.44627  0.45584  0.42497  Biso   1.000  C
  C19      1.0000 0.48347  0.50348  0.30385  Biso   1.000  C
  H5       1.0000 0.47062  0.50617  0.15150  Biso   1.000  H
  C20      1.0000 0.42281  0.40115  0.75138  Biso   1.000  C
  O13      1.0000 0.37437  0.36135  0.68373  Biso   1.000  O
  O14      1.0000 0.43772  0.39802  0.92823  Biso   1.000  O
  O15      1.0000 0.39424  0.41310  0.35233  Biso   1.000  O
  Zn6      1.0000 0.98265  0.70389  0.81878  Biso   1.000  Zn
  C21      1.0000 0.12947  0.78571  0.95446  Biso   1.000  C
  C22      1.0000 0.11293  0.78918  0.75831  Biso   1.000  C
  C23      1.0000 0.15013  0.83682  0.63719  Biso   1.000  C
  H6       1.0000 0.13728  0.83951  0.48484  Biso   1.000  H
  C24      1.0000 0.08947  0.73449  0.08472  Biso   1.000  C
  O16      1.0000 0.04103  0.69469  0.01707  Biso   1.000  O
  O17      1.0000 0.10438  0.73136  0.26157  Biso   1.000  O
  O18      1.0000 0.06090  0.74644  0.68567  Biso   1.000  O
  Zn7      1.0000 0.96278  0.61210  0.15211  Biso   1.000  Zn
  C25      1.0000 0.88096  0.67710  0.28779  Biso   1.000  C
  C26      1.0000 0.87749  0.65709  0.09164  Biso   1.000  C
  C27      1.0000 0.82985  0.64665  0.97052  Biso   1.000  C
  H7       1.0000 0.82716  0.63111  0.81817  Biso   1.000  H
  C28      1.0000 0.93218  0.68832  0.41805  Biso   1.000  C
  O19      1.0000 0.97198  0.67968  0.35040  Biso   1.000  O
  O20      1.0000 0.93531  0.70636  0.59490  Biso   1.000  O
  O21      1.0000 0.92023  0.64780  0.01900  Biso   1.000  O
  Zn8      1.0000 0.62945  0.94543  0.48544  Biso   1.000  Zn
  C29      1.0000 0.54763  0.01043  0.62112  Biso   1.000  C
  C30      1.0000 0.54416  0.99042  0.42497  Biso   1.000  C
  C31      1.0000 0.49652  0.97998  0.30385  Biso   1.000  C
  H8       1.0000 0.49383  0.96444  0.15150  Biso   1.000  H
  C32      1.0000 0.59885  0.02165  0.75138  Biso   1.000  C
  O22      1.0000 0.63865  0.01301  0.68373  Biso   1.000  O
  O23      1.0000 0.60198  0.03969  0.92823  Biso   1.000  O
  O24      1.0000 0.58690  0.98113  0.35233  Biso   1.000  O
  Zn9      1.0000 0.29611  0.27877  0.81878  Biso   1.000  Zn
  C33      1.0000 0.21429  0.34377  0.95446  Biso   1.000  C
  C34      1.0000 0.21082  0.32376  0.75831  Biso   1.000  C
  C35      1.0000 0.16318  0.31332  0.63719  Biso   1.000  C
  H9       1.0000 0.16049  0.29778  0.48484  Biso   1.000  H
  C36      1.0000 0.26551  0.35499  0.08472  Biso   1.000  C
  O25      1.0000 0.30531  0.34635  0.01707  Biso   1.000  O
  O26      1.0000 0.26864  0.37303  0.26157  Biso   1.000  O
  O27      1.0000 0.25356  0.31447  0.68567  Biso   1.000  O
  Zn10     1.0000 0.61210  0.64932  0.84789  Biso   1.000  Zn
  C37      1.0000 0.67710  0.79614  0.71221  Biso   1.000  C
  C38      1.0000 0.65709  0.77960  0.90836  Biso   1.000  C
  C39      1.0000 0.64665  0.81680  0.02948  Biso   1.000  C
  H10      1.0000 0.63111  0.80395  0.18183  Biso   1.000  H
  C40      1.0000 0.68832  0.75614  0.58195  Biso   1.000  C
  O28      1.0000 0.67968  0.70770  0.64960  Biso   1.000  O
  O29      1.0000 0.70636  0.77105  0.40510  Biso   1.000  O
  O30      1.0000 0.64780  0.72757  0.98100  Biso   1.000  O
  Zn11     1.0000 0.27877  0.98265  0.18122  Biso   1.000  Zn
  C41      1.0000 0.34377  0.12947  0.04554  Biso   1.000  C
  C42      1.0000 0.32376  0.11293  0.24169  Biso   1.000  C
  C43      1.0000 0.31332  0.15013  0.36281  Biso   1.000  C
  H11      1.0000 0.29778  0.13728  0.51516  Biso   1.000  H
  C44      1.0000 0.35499  0.08947  0.91528  Biso   1.000  C
  O31      1.0000 0.34635  0.04103  0.98293  Biso   1.000  O
  O32      1.0000 0.37303  0.10438  0.73843  Biso   1.000  O
  O33      1.0000 0.31447  0.06090  0.31433  Biso   1.000  O
  Zn12     1.0000 0.94543  0.31599  0.51456  Biso   1.000  Zn
  C45      1.0000 0.01043  0.46281  0.37888  Biso   1.000  C
  C46      1.0000 0.99042  0.44627  0.57503  Biso   1.000  C
  C47      1.0000 0.97998  0.48347  0.69615  Biso   1.000  C
  H12      1.0000 0.96444  0.47062  0.84850  Biso   1.000  H
  C48      1.0000 0.02165  0.42281  0.24862  Biso   1.000  C
  O34      1.0000 0.01301  0.37437  0.31627  Biso   1.000  O
  O35      1.0000 0.03969  0.43772  0.07177  Biso   1.000  O
  O36      1.0000 0.98113  0.39424  0.64767  Biso   1.000  O
  Zn13     1.0000 0.35068  0.96278  0.84789  Biso   1.000  Zn
  C49      1.0000 0.20386  0.88096  0.71221  Biso   1.000  C
  C50      1.0000 0.22040  0.87749  0.90836  Biso   1.000  C
  C51      1.0000 0.18320  0.82985  0.02948  Biso   1.000  C
  H13      1.0000 0.19605  0.82716  0.18183  Biso   1.000  H
  C52      1.0000 0.24386  0.93218  0.58195  Biso   1.000  C
  O37      1.0000 0.29230  0.97198  0.64960  Biso   1.000  O
  O38      1.0000 0.22895  0.93531  0.40510  Biso   1.000  O
  O39      1.0000 0.27243  0.92023  0.98100  Biso   1.000  O
  Zn14     1.0000 0.01735  0.29611  0.18122  Biso   1.000  Zn
  C53      1.0000 0.87053  0.21429  0.04554  Biso   1.000  C
  C54      1.0000 0.88707  0.21082  0.24169  Biso   1.000  C
  C55      1.0000 0.84987  0.16318  0.36281  Biso   1.000  C
  H14      1.0000 0.86272  0.16049  0.51516  Biso   1.000  H
  C56      1.0000 0.91053  0.26551  0.91528  Biso   1.000  C
  O40      1.0000 0.95897  0.30531  0.98293  Biso   1.000  O
  O41      1.0000 0.89562  0.26864  0.73843  Biso   1.000  O
  O42      1.0000 0.93910  0.25356  0.31433  Biso   1.000  O
  Zn15     1.0000 0.68401  0.62945  0.51456  Biso   1.000  Zn
  C57      1.0000 0.53719  0.54763  0.37888  Biso   1.000  C
  C58      1.0000 0.55373  0.54416  0.57503  Biso   1.000  C
  C59      1.0000 0.51653  0.49652  0.69615  Biso   1.000  C
  H15      1.0000 0.52938  0.49383  0.84850  Biso   1.000  H
  C60      1.0000 0.57719  0.59885  0.24862  Biso   1.000  C
  O43      1.0000 0.62563  0.63865  0.31627  Biso   1.000  O
  O44      1.0000 0.56228  0.60198  0.07177  Biso   1.000  O
  O45      1.0000 0.60576  0.58690  0.64767  Biso   1.000  O
  Zn16     1.0000 0.03722  0.38790  0.84789  Biso   1.000  Zn
  C61      1.0000 0.11904  0.32290  0.71221  Biso   1.000  C
  C62      1.0000 0.12251  0.34291  0.90836  Biso   1.000  C
  C63      1.0000 0.17015  0.35335  0.02948  Biso   1.000  C
  H16      1.0000 0.17284  0.36889  0.18183  Biso   1.000  H
  C64      1.0000 0.06782  0.31168  0.58195  Biso   1.000  C
  O46      1.0000 0.02802  0.32032  0.64960  Biso   1.000  O
  O47      1.0000 0.06469  0.29364  0.40510  Biso   1.000  O
  O48      1.0000 0.07977  0.35220  0.98100  Biso   1.000  O
  Zn17     1.0000 0.70389  0.72123  0.18122  Biso   1.000  Zn
  C65      1.0000 0.78571  0.65623  0.04554  Biso   1.000  C
  C66      1.0000 0.78918  0.67624  0.24169  Biso   1.000  C
  C67      1.0000 0.83682  0.68668  0.36281  Biso   1.000  C
  H17      1.0000 0.83951  0.70222  0.51516  Biso   1.000  H
  C68      1.0000 0.73449  0.64501  0.91528  Biso   1.000  C
  O49      1.0000 0.69469  0.65365  0.98293  Biso   1.000  O
  O50      1.0000 0.73136  0.62697  0.73843  Biso   1.000  O
  O51      1.0000 0.74644  0.68553  0.31433  Biso   1.000  O
  Zn18     1.0000 0.37055  0.05457  0.51456  Biso   1.000  Zn
  C69      1.0000 0.45237  0.98957  0.37888  Biso   1.000  C
  C70      1.0000 0.45584  0.00958  0.57503  Biso   1.000  C
  C71      1.0000 0.50348  0.02002  0.69615  Biso   1.000  C
  H18      1.0000 0.50617  0.03556  0.84850  Biso   1.000  H
  C72      1.0000 0.40115  0.97835  0.24862  Biso   1.000  C
  O52      1.0000 0.36135  0.98699  0.31627  Biso   1.000  O
  O53      1.0000 0.39802  0.96031  0.07177  Biso   1.000  O
  O54      1.0000 0.41310  0.01887  0.64767  Biso   1.000  O
